<additional>
<tlLogic id="1559451853" type="static" programID="tls" offset="0">
        <phase duration="11" state="GGGrrr" />
        <phase duration="5" state="yyyrrr" />
        <phase duration="14" state="rrrGGG" />
        <phase duration="5" state="rrryyy" />
    </tlLogic>
    <tlLogic id="1559476783" type="static" programID="tls" offset="0">
        <phase duration="12" state="GGGgrrrGGg" />
        <phase duration="5" state="yyyyrrryyy" />
        <phase duration="11" state="rrrrGGGrrr" />
        <phase duration="5" state="rrrryyyrrr" />
    </tlLogic>
    <tlLogic id="2721256048" type="static" programID="tls" offset="0">
        <phase duration="12" state="GGrr" />
        <phase duration="5" state="yyrr" />
        <phase duration="12" state="rrGG" />
        <phase duration="5" state="rryy" />
    </tlLogic>
    <tlLogic id="296637207" type="static" programID="tls" offset="0">
        <phase duration="9" state="GGGr" />
        <phase duration="5" state="yyyr" />
        <phase duration="12" state="rrrG" />
        <phase duration="5" state="rrry" />
    </tlLogic>
    <tlLogic id="296637218" type="static" programID="tls" offset="0">
        <phase duration="12" state="GGrr" />
        <phase duration="5" state="yyrr" />
        <phase duration="11" state="rrGG" />
        <phase duration="5" state="rryy" />
    </tlLogic>
    <tlLogic id="296637225" type="static" programID="tls" offset="0">
        <phase duration="12" state="GGrr" />
        <phase duration="5" state="yyrr" />
        <phase duration="12" state="rrGG" />
        <phase duration="5" state="rryy" />
    </tlLogic>
    <tlLogic id="296637233" type="static" programID="tls" offset="0">
        <phase duration="10" state="GGrr" />
        <phase duration="5" state="yyrr" />
        <phase duration="13" state="rrGG" />
        <phase duration="5" state="rryy" />
    </tlLogic>
    <tlLogic id="296637281" type="static" programID="tls" offset="0">
        <phase duration="16" state="GGrr" />
        <phase duration="5" state="yyrr" />
        <phase duration="11" state="rrGG" />
        <phase duration="5" state="rryy" />
    </tlLogic>
    <tlLogic id="296637288" type="static" programID="tls" offset="0">
        <phase duration="12" state="GGrr" />
        <phase duration="5" state="yyrr" />
        <phase duration="12" state="rrGG" />
        <phase duration="5" state="rryy" />
    </tlLogic>
    <tlLogic id="296637299" type="static" programID="tls" offset="0">
        <phase duration="12" state="Grrrr" />
        <phase duration="5" state="yrrrr" />
        <phase duration="11" state="rGGGG" />
        <phase duration="5" state="ryyyy" />
    </tlLogic>
    <tlLogic id="296637337" type="static" programID="tls" offset="0">
        <phase duration="12" state="GGGgGGgg" />
        <phase duration="5" state="yyyyyyyy" />
        <phase duration="11" state="rrrrrrrr" />
    </tlLogic>
    <tlLogic id="296637359" type="static" programID="tls" offset="0">
        <phase duration="9" state="GGgGGGgrrr" />
        <phase duration="5" state="yyyyyyyrrr" />
        <phase duration="12" state="rrrrrrrGGG" />
        <phase duration="5" state="rrrrrrryyy" />
    </tlLogic>
    <tlLogic id="296637370" type="static" programID="tls" offset="0">
        <phase duration="18" state="G" />
        <phase duration="5" state="y" />
        <phase duration="12" state="r" />
    </tlLogic>
    <tlLogic id="296637430" type="static" programID="tls" offset="0">
        <phase duration="11" state="GGGrrrr" />
        <phase duration="5" state="yyyrrrr" />
        <phase duration="16" state="rrrGGGG" />
        <phase duration="5" state="rrryyyy" />
    </tlLogic>
    <tlLogic id="296637438" type="static" programID="tls" offset="0">
        <phase duration="12" state="GGrrrr" />
        <phase duration="5" state="yyrrrr" />
        <phase duration="12" state="rrGGGG" />
        <phase duration="5" state="rryyyy" />
    </tlLogic>
    <tlLogic id="296637447" type="static" programID="tls" offset="0">
        <phase duration="12" state="GGrrr" />
        <phase duration="5" state="yyrrr" />
        <phase duration="12" state="rrGGG" />
        <phase duration="5" state="rryyy" />
    </tlLogic>
    <tlLogic id="296637521" type="static" programID="tls" offset="0">
        <phase duration="12" state="GGrr" />
        <phase duration="5" state="yyrr" />
        <phase duration="11" state="rrGG" />
        <phase duration="5" state="rryy" />
    </tlLogic>
    <tlLogic id="296637528" type="static" programID="tls" offset="0">
        <phase duration="12" state="GGrr" />
        <phase duration="5" state="yyrr" />
        <phase duration="9" state="rrGG" />
        <phase duration="5" state="rryy" />
    </tlLogic>
    <tlLogic id="296637539" type="static" programID="tls" offset="0">
        <phase duration="16" state="GGrr" />
        <phase duration="5" state="yyrr" />
        <phase duration="12" state="rrGG" />
        <phase duration="5" state="rryy" />
    </tlLogic>
    <tlLogic id="296637549" type="static" programID="tls" offset="0">
        <phase duration="12" state="GGGGrr" />
        <phase duration="5" state="yyyyrr" />
        <phase duration="12" state="rrrrGG" />
        <phase duration="5" state="rrrryy" />
    </tlLogic>
    <tlLogic id="296637610" type="static" programID="tls" offset="0">
        <phase duration="11" state="GGrr" />
        <phase duration="5" state="yyrr" />
        <phase duration="11" state="rrGG" />
        <phase duration="5" state="rryy" />
    </tlLogic>
    <tlLogic id="296637617" type="static" programID="tls" offset="0">
        <phase duration="12" state="GGGGrrrr" />
        <phase duration="5" state="yyyyrrrr" />
        <phase duration="11" state="rrrrGGGG" />
        <phase duration="5" state="rrrryyyy" />
    </tlLogic>
    <tlLogic id="296637626" type="static" programID="tls" offset="0">
        <phase duration="16" state="GG" />
        <phase duration="5" state="yy" />
        <phase duration="11" state="rr" />
    </tlLogic>
    <tlLogic id="296637654" type="static" programID="tls" offset="0">
        <phase duration="12" state="GGrr" />
        <phase duration="5" state="yyrr" />
        <phase duration="11" state="rrGG" />
        <phase duration="5" state="rryy" />
    </tlLogic>
    <tlLogic id="296637664" type="static" programID="tls" offset="0">
        <phase duration="12" state="Gr" />
        <phase duration="5" state="yr" />
        <phase duration="9" state="rG" />
        <phase duration="5" state="ry" />
    </tlLogic>
    <tlLogic id="296637748" type="static" programID="tls" offset="0">
        <phase duration="12" state="GGrr" />
        <phase duration="5" state="yyrr" />
        <phase duration="9" state="rrGG" />
        <phase duration="5" state="rryy" />
    </tlLogic>
    <tlLogic id="296666518" type="static" programID="tls" offset="0">
        <phase duration="34" state="GGG" />
        <phase duration="5" state="yyy" />
        <phase duration="27" state="rrr" />
    </tlLogic>
    <tlLogic id="296666546" type="static" programID="tls" offset="0">
        <phase duration="10" state="GGGrr" />
        <phase duration="5" state="yyyrr" />
        <phase duration="9" state="rrrGG" />
        <phase duration="5" state="rrryy" />
    </tlLogic>
    <tlLogic id="296666558" type="static" programID="tls" offset="0">
        <phase duration="12" state="GGrrr" />
        <phase duration="5" state="yyrrr" />
        <phase duration="12" state="rrGGG" />
        <phase duration="5" state="rryyy" />
    </tlLogic>
    <tlLogic id="296666580" type="static" programID="tls" offset="0">
        <phase duration="11" state="GGGrr" />
        <phase duration="5" state="yyyrr" />
        <phase duration="10" state="rrrGG" />
        <phase duration="5" state="rrryy" />
    </tlLogic>
    <tlLogic id="296666597" type="static" programID="tls" offset="0">
        <phase duration="10" state="GGGrr" />
        <phase duration="5" state="yyyrr" />
        <phase duration="13" state="rrrGG" />
        <phase duration="5" state="rrryy" />
    </tlLogic>
    <tlLogic id="296666602" type="static" programID="tls" offset="0">
        <phase duration="12" state="GGGrr" />
        <phase duration="5" state="yyyrr" />
        <phase duration="11" state="rrrGG" />
        <phase duration="5" state="rrryy" />
    </tlLogic>
    <tlLogic id="296666606" type="static" programID="tls" offset="0">
        <phase duration="12" state="GGGrr" />
        <phase duration="5" state="yyyrr" />
        <phase duration="12" state="rrrGG" />
        <phase duration="5" state="rrryy" />
    </tlLogic>
    <tlLogic id="296666611" type="static" programID="tls" offset="0">
        <phase duration="12" state="GGggGGGg" />
        <phase duration="5" state="yyyyyyyy" />
        <phase duration="12" state="rrrrrrrr" />
    </tlLogic>
    <tlLogic id="296666683" type="static" programID="tls" offset="0">
        <phase duration="12" state="GGGrr" />
        <phase duration="5" state="yyyrr" />
        <phase duration="34" state="rrrGG" />
        <phase duration="5" state="rrryy" />
    </tlLogic>
    <tlLogic id="296666691" type="static" programID="tls" offset="0">
        <phase duration="12" state="GGGrr" />
        <phase duration="5" state="yyyrr" />
        <phase duration="11" state="rrrGG" />
        <phase duration="5" state="rrryy" />
    </tlLogic>
    <tlLogic id="296666695" type="static" programID="tls" offset="0">
        <phase duration="12" state="GGGgrrrrGGgg" />
        <phase duration="5" state="yyyyrrrryyyy" />
        <phase duration="11" state="rrrrGGGGrrrr" />
        <phase duration="5" state="rrrryyyyrrrr" />
    </tlLogic>
    <tlLogic id="296666708" type="static" programID="tls" offset="0">
        <phase duration="11" state="GGGgrrrGGgg" />
        <phase duration="5" state="yyyyrrryyyy" />
        <phase duration="12" state="rrrrGGGrrrr" />
        <phase duration="5" state="rrrryyyrrrr" />
    </tlLogic>
    <tlLogic id="296666714" type="static" programID="tls" offset="0">
        <phase duration="16" state="rrrGGggGGGg" />
        <phase duration="5" state="rrryyyyyyyy" />
        <phase duration="11" state="GGGrrrrrrrr" />
        <phase duration="5" state="yyyrrrrrrrr" />
    </tlLogic>
    <tlLogic id="296666718" type="static" programID="tls" offset="0">
        <phase duration="16" state="GGGgrrrGGgg" />
        <phase duration="5" state="yyyyrrryyyy" />
        <phase duration="10" state="rrrrGGGrrrr" />
        <phase duration="5" state="rrrryyyrrrr" />
    </tlLogic>
    <tlLogic id="296734855" type="static" programID="tls" offset="0">
        <phase duration="12" state="GGrr" />
        <phase duration="5" state="yyrr" />
        <phase duration="10" state="rrGG" />
        <phase duration="5" state="rryy" />
    </tlLogic>
    <tlLogic id="296734861" type="static" programID="tls" offset="0">
        <phase duration="16" state="GGrr" />
        <phase duration="5" state="yyrr" />
        <phase duration="21" state="rrGG" />
        <phase duration="5" state="rryy" />
    </tlLogic>
    <tlLogic id="296734867" type="static" programID="tls" offset="0">
        <phase duration="16" state="GGrr" />
        <phase duration="5" state="yyrr" />
        <phase duration="11" state="rrGG" />
        <phase duration="5" state="rryy" />
    </tlLogic>
    <tlLogic id="296734871" type="static" programID="tls" offset="0">
        <phase duration="11" state="GGrr" />
        <phase duration="5" state="yyrr" />
        <phase duration="16" state="rrGG" />
        <phase duration="5" state="rryy" />
    </tlLogic>
    <tlLogic id="296734874" type="static" programID="tls" offset="0">
        <phase duration="9" state="GGrr" />
        <phase duration="5" state="yyrr" />
        <phase duration="13" state="rrGG" />
        <phase duration="5" state="rryy" />
    </tlLogic>
    <tlLogic id="296734897" type="static" programID="tls" offset="0">
        <phase duration="12" state="GGrr" />
        <phase duration="5" state="yyrr" />
        <phase duration="12" state="rrGG" />
        <phase duration="5" state="rryy" />
    </tlLogic>
    <tlLogic id="296734906" type="static" programID="tls" offset="0">
        <phase duration="21" state="GGrr" />
        <phase duration="5" state="yyrr" />
        <phase duration="12" state="rrGG" />
        <phase duration="5" state="rryy" />
    </tlLogic>
    <tlLogic id="296734909" type="static" programID="tls" offset="0">
        <phase duration="12" state="GGrr" />
        <phase duration="5" state="yyrr" />
        <phase duration="11" state="rrGG" />
        <phase duration="5" state="rryy" />
    </tlLogic>
    <tlLogic id="296734962" type="static" programID="tls" offset="0">
        <phase duration="11" state="GGrr" />
        <phase duration="5" state="yyrr" />
        <phase duration="12" state="rrGG" />
        <phase duration="5" state="rryy" />
    </tlLogic>
    <tlLogic id="296734964" type="static" programID="tls" offset="0">
        <phase duration="11" state="GGrr" />
        <phase duration="5" state="yyrr" />
        <phase duration="11" state="rrGG" />
        <phase duration="5" state="rryy" />
    </tlLogic>
    <tlLogic id="296734968" type="static" programID="tls" offset="0">
        <phase duration="13" state="GGrr" />
        <phase duration="5" state="yyrr" />
        <phase duration="11" state="rrGG" />
        <phase duration="5" state="rryy" />
    </tlLogic>
    <tlLogic id="296734976" type="static" programID="tls" offset="0">
        <phase duration="12" state="GGrr" />
        <phase duration="5" state="yyrr" />
        <phase duration="12" state="rrGG" />
        <phase duration="5" state="rryy" />
    </tlLogic>
    <tlLogic id="296734980" type="static" programID="tls" offset="0">
        <phase duration="9" state="GGrr" />
        <phase duration="5" state="yyrr" />
        <phase duration="10" state="rrGG" />
        <phase duration="5" state="rryy" />
    </tlLogic>
    <tlLogic id="296734996" type="static" programID="tls" offset="0">
        <phase duration="11" state="GGrr" />
        <phase duration="5" state="yyrr" />
        <phase duration="12" state="rrGG" />
        <phase duration="5" state="rryy" />
    </tlLogic>
    <tlLogic id="296735001" type="static" programID="tls" offset="0">
        <phase duration="9" state="GGrr" />
        <phase duration="5" state="yyrr" />
        <phase duration="12" state="rrGG" />
        <phase duration="5" state="rryy" />
    </tlLogic>
    <tlLogic id="301844169" type="static" programID="tls" offset="0">
        <phase duration="12" state="G" />
        <phase duration="5" state="y" />
        <phase duration="12" state="r" />
    </tlLogic>
    <tlLogic id="4757133189" type="static" programID="tls" offset="0">
        <phase duration="9" state="GGrrr" />
        <phase duration="5" state="yyrrr" />
        <phase duration="12" state="rrGGG" />
        <phase duration="5" state="rryyy" />
    </tlLogic>
    <tlLogic id="7303997531" type="static" programID="tls" offset="0">
        <phase duration="12" state="G" />
        <phase duration="5" state="y" />
        <phase duration="9" state="r" />
    </tlLogic>
    <tlLogic id="7303997539" type="static" programID="tls" offset="0">
        <phase duration="12" state="G" />
        <phase duration="5" state="y" />
        <phase duration="12" state="r" />
    </tlLogic>
    <tlLogic id="7304015850" type="static" programID="tls" offset="0">
        <phase duration="9" state="GGG" />
        <phase duration="5" state="yyy" />
        <phase duration="12" state="rrr" />
    </tlLogic>
    <tlLogic id="7304015852" type="static" programID="tls" offset="0">
        <phase duration="11" state="GGG" />
        <phase duration="5" state="yyy" />
        <phase duration="10" state="rrr" />
    </tlLogic>
    <tlLogic id="8789786542" type="static" programID="tls" offset="0">
        <phase duration="11" state="GG" />
        <phase duration="5" state="yy" />
        <phase duration="12" state="rr" />
    </tlLogic>
    <tlLogic id="8789786564" type="static" programID="tls" offset="0">
        <phase duration="11" state="G" />
        <phase duration="5" state="y" />
        <phase duration="12" state="r" />
    </tlLogic>
    <tlLogic id="8789786581" type="static" programID="tls" offset="0">
        <phase duration="11" state="G" />
        <phase duration="5" state="y" />
        <phase duration="10" state="r" />
    </tlLogic>
    <tlLogic id="8887765218" type="static" programID="tls" offset="0">
        <phase duration="12" state="GGrr" />
        <phase duration="5" state="yyrr" />
        <phase duration="12" state="rrGG" />
        <phase duration="5" state="rryy" />
    </tlLogic>
    <tlLogic id="9111824691" type="static" programID="tls" offset="0">
        <phase duration="10" state="GGG" />
        <phase duration="5" state="yyy" />
        <phase duration="12" state="rrr" />
    </tlLogic>
    <tlLogic id="9111824692" type="static" programID="tls" offset="0">
        <phase duration="11" state="GGG" />
        <phase duration="5" state="yyy" />
        <phase duration="16" state="rrr" />
    </tlLogic>
    <tlLogic id="9111824695" type="static" programID="tls" offset="0">
        <phase duration="11" state="GGGG" />
        <phase duration="5" state="yyyy" />
        <phase duration="12" state="rrrr" />
    </tlLogic>
</additional>