<?xml version="1.0" encoding="UTF-8"?>

<!-- generated on 2022-05-20 11:09:44 by Eclipse SUMO netedit Version 1.12.0
<configuration xmlns:xsi="http://www.w3.org/2001/XMLSchema-instance" xsi:noNamespaceSchemaLocation="http://sumo.dlr.de/xsd/netconvertConfiguration.xsd">

    <input>
        <sumo-net-file value="in/kaohsiung.net.xml"/>
    </input>

    <output>
        <output-file value="in/kaohsiung.net.xml"/>
    </output>

    <processing>
        <geometry.min-radius.fix.railways value="false"/>
        <geometry.max-grade.fix value="false"/>
        <offset.disable-normalization value="true"/>
        <lefthand value="false"/>
    </processing>

    <junctions>
        <no-turnarounds value="true"/>
        <junctions.corner-detail value="0"/>
        <junctions.limit-turn-speed value="-1"/>
        <rectangular-lane-cut value="false"/>
    </junctions>

    <pedestrian>
        <walkingareas value="false"/>
    </pedestrian>

    <report>
        <aggregate-warnings value="5"/>
    </report>

</configuration>
-->

<net version="1.9" xmlns:xsi="http://www.w3.org/2001/XMLSchema-instance" xsi:noNamespaceSchemaLocation="http://sumo.dlr.de/xsd/net_file.xsd">

    <location netOffset="-221870.31,-2497466.47" convBoundary="0.00,0.00,6225.61,14789.66" origBoundary="120.293247,22.562212,120.355918,22.694852" projParameter="+proj=utm +zone=51 +ellps=WGS84 +datum=WGS84 +units=m +no_defs"/>

    <type id="highway.bridleway" priority="1" numLanes="1" speed="2.78" allow="pedestrian" oneway="1" width="2.00"/>
    <type id="highway.bus_guideway" priority="1" numLanes="1" speed="8.33" allow="bus" oneway="1"/>
    <type id="highway.cycleway" priority="1" numLanes="1" speed="5.56" allow="bicycle" oneway="0" width="1.00"/>
    <type id="highway.footway" priority="1" numLanes="1" speed="2.78" allow="pedestrian" oneway="1" width="2.00"/>
    <type id="highway.ford" priority="1" numLanes="1" speed="2.78" allow="army" oneway="0"/>
    <type id="highway.living_street" priority="3" numLanes="1" speed="2.78" disallow="tram rail_urban rail rail_electric ship" oneway="0"/>
    <type id="highway.motorway" priority="13" numLanes="2" speed="44.44" allow="private emergency authority army vip passenger hov taxi bus coach delivery truck trailer motorcycle evehicle custom1 custom2" oneway="1"/>
    <type id="highway.motorway_link" priority="12" numLanes="1" speed="22.22" allow="private emergency authority army vip passenger hov taxi bus coach delivery truck trailer motorcycle evehicle custom1 custom2" oneway="1"/>
    <type id="highway.path" priority="1" numLanes="1" speed="2.78" allow="pedestrian bicycle" oneway="1" width="2.00"/>
    <type id="highway.pedestrian" priority="1" numLanes="1" speed="2.78" allow="pedestrian" oneway="1" width="2.00"/>
    <type id="highway.primary" priority="9" numLanes="2" speed="27.78" disallow="tram rail_urban rail rail_electric ship" oneway="0"/>
    <type id="highway.primary_link" priority="8" numLanes="1" speed="22.22" disallow="tram rail_urban rail rail_electric ship" oneway="0"/>
    <type id="highway.raceway" priority="14" numLanes="2" speed="83.33" allow="vip" oneway="0"/>
    <type id="highway.residential" priority="4" numLanes="1" speed="13.89" disallow="tram rail_urban rail rail_electric ship" oneway="0"/>
    <type id="highway.secondary" priority="7" numLanes="2" speed="27.78" disallow="tram rail_urban rail rail_electric ship" oneway="0"/>
    <type id="highway.secondary_link" priority="6" numLanes="1" speed="22.22" disallow="tram rail_urban rail rail_electric ship" oneway="0"/>
    <type id="highway.service" priority="2" numLanes="1" speed="5.56" allow="pedestrian delivery bicycle" oneway="0"/>
    <type id="highway.services" priority="1" numLanes="1" speed="8.33" disallow="tram rail_urban rail rail_electric ship" oneway="0"/>
    <type id="highway.stairs" priority="1" numLanes="1" speed="1.39" allow="pedestrian" oneway="1" width="2.00"/>
    <type id="highway.step" priority="1" numLanes="1" speed="1.39" allow="pedestrian" oneway="1" width="2.00"/>
    <type id="highway.steps" priority="1" numLanes="1" speed="1.39" allow="pedestrian" oneway="1" width="2.00"/>
    <type id="highway.tertiary" priority="6" numLanes="1" speed="22.22" disallow="tram rail_urban rail rail_electric ship" oneway="0"/>
    <type id="highway.tertiary_link" priority="5" numLanes="1" speed="22.22" disallow="tram rail_urban rail rail_electric ship" oneway="0"/>
    <type id="highway.track" priority="1" numLanes="1" speed="5.56" disallow="tram rail_urban rail rail_electric ship" oneway="0"/>
    <type id="highway.trunk" priority="11" numLanes="2" speed="27.78" disallow="pedestrian bicycle tram rail_urban rail rail_electric ship" oneway="0"/>
    <type id="highway.trunk_link" priority="10" numLanes="1" speed="22.22" disallow="pedestrian bicycle tram rail_urban rail rail_electric ship" oneway="0"/>
    <type id="highway.unclassified" priority="5" numLanes="1" speed="13.89" disallow="tram rail_urban rail rail_electric ship" oneway="0"/>
    <type id="highway.unsurfaced" priority="1" numLanes="1" speed="8.33" disallow="tram rail_urban rail rail_electric ship" oneway="0"/>
    <type id="railway.light_rail" priority="15" numLanes="1" speed="27.78" allow="rail_urban" oneway="1"/>
    <type id="railway.preserved" priority="15" numLanes="1" speed="27.78" allow="rail" oneway="1"/>
    <type id="railway.rail" priority="15" numLanes="1" speed="83.33" allow="rail rail_electric" oneway="1"/>
    <type id="railway.subway" priority="15" numLanes="1" speed="27.78" allow="rail_urban" oneway="1"/>
    <type id="railway.tram" priority="15" numLanes="1" speed="13.89" allow="tram" oneway="1"/>

    <edge id=":1031440904_0" function="internal">
        <lane id=":1031440904_0_0" index="0" allow="pedestrian delivery bicycle" speed="13.89" length="5.08" shape="1490.68,11503.72 1490.17,11502.40 1489.37,11501.60 1488.27,11501.30 1486.88,11501.52"/>
    </edge>
    <edge id=":1031440904_1" function="internal">
        <lane id=":1031440904_1_0" index="0" allow="pedestrian delivery bicycle" speed="13.89" length="10.13" shape="1490.68,11503.72 1490.40,11500.88 1490.99,11498.59 1492.47,11496.85 1494.81,11495.65"/>
    </edge>
    <edge id=":1031440904_2" function="internal">
        <lane id=":1031440904_2_0" index="0" allow="pedestrian delivery bicycle" speed="5.56" length="4.67" shape="1490.68,11503.72 1491.19,11502.37 1491.88,11501.80 1492.75,11502.01 1493.79,11503.00"/>
    </edge>
    <edge id=":1031440904_3" function="internal">
        <lane id=":1031440904_3_0" index="0" allow="pedestrian delivery bicycle" speed="13.89" length="5.32" shape="1495.82,11498.69 1494.64,11499.31 1493.91,11500.23 1493.63,11501.46 1493.79,11503.00"/>
    </edge>
    <edge id=":1031440904_4" function="internal">
        <lane id=":1031440904_4_0" index="0" disallow="tram rail_urban rail rail_electric rail_fast ship" speed="22.22" length="9.38" shape="1495.82,11498.69 1486.88,11501.52"/>
    </edge>
    <edge id=":1031440904_5" function="internal">
        <lane id=":1031440904_5_0" index="0" disallow="tram rail_urban rail rail_electric rail_fast ship" speed="22.22" length="1.44" shape="1495.82,11498.69 1494.43,11498.31"/>
    </edge>
    <edge id=":1031440904_9" function="internal">
        <lane id=":1031440904_9_0" index="0" disallow="tram rail_urban rail rail_electric rail_fast ship" speed="22.22" length="3.23" shape="1494.43,11498.31 1493.80,11497.67 1493.93,11496.79 1494.81,11495.65"/>
    </edge>
    <edge id=":1031440904_6" function="internal">
        <lane id=":1031440904_6_0" index="0" disallow="tram rail_urban rail rail_electric rail_fast ship" speed="22.22" length="9.29" shape="1485.96,11498.45 1494.81,11495.65"/>
    </edge>
    <edge id=":1031440904_7" function="internal">
        <lane id=":1031440904_7_0" index="0" allow="pedestrian delivery bicycle" speed="13.89" length="3.25" shape="1485.96,11498.45 1488.83,11498.02 1489.16,11498.11"/>
    </edge>
    <edge id=":1031440904_8" function="internal">
        <lane id=":1031440904_8_0" index="0" disallow="tram rail_urban rail rail_electric rail_fast ship" speed="22.22" length="1.44" shape="1485.96,11498.45 1487.34,11498.87"/>
    </edge>
    <edge id=":1031440904_10" function="internal">
        <lane id=":1031440904_10_0" index="0" allow="pedestrian delivery bicycle" speed="13.89" length="7.25" shape="1489.16,11498.11 1491.09,11498.63 1492.75,11500.29 1493.79,11503.00"/>
    </edge>
    <edge id=":1031440904_11" function="internal">
        <lane id=":1031440904_11_0" index="0" disallow="tram rail_urban rail rail_electric rail_fast ship" speed="22.22" length="3.23" shape="1487.34,11498.87 1487.95,11499.52 1487.80,11500.40 1486.88,11501.52"/>
    </edge>
    <edge id=":1031440919_0" function="internal">
        <lane id=":1031440919_0_0" index="0" allow="pedestrian delivery bicycle" speed="5.56" length="4.67" shape="1397.75,11729.35 1396.33,11729.07 1395.65,11728.49 1395.71,11727.59 1396.51,11726.39"/>
    </edge>
    <edge id=":1031440958_0" function="internal">
        <lane id=":1031440958_0_0" index="0" allow="pedestrian delivery bicycle" speed="9.72" length="5.03" shape="1112.91,11687.03 1112.67,11685.68 1112.06,11684.73 1111.06,11684.18 1109.68,11684.03"/>
    </edge>
    <edge id=":1031440958_1" function="internal">
        <lane id=":1031440958_1_0" index="0" disallow="tram rail_urban rail rail_electric rail_fast ship" speed="13.89" length="9.43" shape="1112.91,11687.03 1112.55,11677.61"/>
    </edge>
    <edge id=":1031440958_2" function="internal">
        <lane id=":1031440958_2_0" index="0" disallow="tram rail_urban rail rail_electric rail_fast ship" speed="13.89" length="1.44" shape="1112.91,11687.03 1113.67,11685.81"/>
    </edge>
    <edge id=":1031440958_9" function="internal">
        <lane id=":1031440958_9_0" index="0" disallow="tram rail_urban rail rail_electric rail_fast ship" speed="13.89" length="3.23" shape="1113.67,11685.81 1114.46,11685.38 1115.27,11685.76 1116.11,11686.93"/>
    </edge>
    <edge id=":1031440958_3" function="internal">
        <lane id=":1031440958_3_0" index="0" disallow="tram rail_urban rail rail_electric rail_fast ship" speed="13.89" length="9.48" shape="1115.74,11677.46 1116.11,11686.93"/>
    </edge>
    <edge id=":1031440958_4" function="internal">
        <lane id=":1031440958_4_0" index="0" allow="pedestrian delivery bicycle" speed="9.72" length="3.33" shape="1115.74,11677.46 1115.48,11680.25 1115.23,11680.71"/>
    </edge>
    <edge id=":1031440958_5" function="internal">
        <lane id=":1031440958_5_0" index="0" disallow="tram rail_urban rail rail_electric rail_fast ship" speed="13.89" length="1.44" shape="1115.74,11677.46 1115.00,11678.69"/>
    </edge>
    <edge id=":1031440958_10" function="internal">
        <lane id=":1031440958_10_0" index="0" allow="pedestrian delivery bicycle" speed="9.72" length="6.90" shape="1115.23,11680.71 1114.38,11682.28 1112.45,11683.54 1109.68,11684.03"/>
    </edge>
    <edge id=":1031440958_11" function="internal">
        <lane id=":1031440958_11_0" index="0" disallow="tram rail_urban rail rail_electric rail_fast ship" speed="13.89" length="3.23" shape="1115.00,11678.69 1114.22,11679.13 1113.40,11678.77 1112.55,11677.61"/>
    </edge>
    <edge id=":1031440958_6" function="internal">
        <lane id=":1031440958_6_0" index="0" allow="pedestrian delivery bicycle" speed="9.72" length="5.02" shape="1109.58,11680.83 1110.93,11680.59 1111.88,11679.97 1112.42,11678.98 1112.55,11677.61"/>
    </edge>
    <edge id=":1031440958_7" function="internal">
        <lane id=":1031440958_7_0" index="0" allow="pedestrian delivery bicycle" speed="9.72" length="10.21" shape="1109.58,11680.83 1112.36,11681.13 1114.38,11682.25 1115.63,11684.18 1116.11,11686.93"/>
    </edge>
    <edge id=":1031440958_8" function="internal">
        <lane id=":1031440958_8_0" index="0" allow="pedestrian delivery bicycle" speed="5.56" length="4.67" shape="1109.58,11680.83 1110.80,11681.59 1111.23,11682.38 1110.86,11683.19 1109.68,11684.03"/>
    </edge>
    <edge id=":1031440966_0" function="internal">
        <lane id=":1031440966_0_0" index="0" disallow="tram rail_urban rail rail_electric rail_fast ship" speed="13.89" length="0.17" shape="1657.55,11779.13 1657.39,11779.17"/>
    </edge>
    <edge id=":1031440966_1" function="internal">
        <lane id=":1031440966_1_0" index="0" disallow="tram rail_urban rail rail_electric rail_fast ship" speed="13.89" length="2.34" shape="1657.55,11779.13 1656.21,11778.61 1655.64,11777.91"/>
    </edge>
    <edge id=":1031440966_4" function="internal">
        <lane id=":1031440966_4_0" index="0" disallow="tram rail_urban rail rail_electric rail_fast ship" speed="13.89" length="2.34" shape="1655.64,11777.91 1655.86,11777.05 1656.85,11776.00"/>
    </edge>
    <edge id=":1031440966_2" function="internal">
        <lane id=":1031440966_2_0" index="0" disallow="tram rail_urban rail rail_electric rail_fast ship" speed="13.89" length="0.29" shape="1656.57,11776.07 1656.85,11776.00"/>
    </edge>
    <edge id=":1031440966_3" function="internal">
        <lane id=":1031440966_3_0" index="0" disallow="tram rail_urban rail rail_electric rail_fast ship" speed="13.89" length="2.34" shape="1656.57,11776.07 1657.94,11776.54 1658.53,11777.21"/>
    </edge>
    <edge id=":1031440966_5" function="internal">
        <lane id=":1031440966_5_0" index="0" disallow="tram rail_urban rail rail_electric rail_fast ship" speed="13.89" length="2.34" shape="1658.53,11777.21 1658.34,11778.09 1657.39,11779.17"/>
    </edge>
    <edge id=":1031440982_0" function="internal">
        <lane id=":1031440982_0_0" index="0" disallow="tram rail_urban rail rail_electric rail_fast ship" speed="13.89" length="5.49" shape="1119.82,11672.63 1118.49,11673.11 1117.39,11673.85 1116.52,11674.86 1115.88,11676.12"/>
    </edge>
    <edge id=":1031440982_1" function="internal">
        <lane id=":1031440982_1_0" index="0" disallow="tram rail_urban rail rail_electric rail_fast ship" speed="13.89" length="1.33" shape="1119.82,11672.63 1118.57,11672.17"/>
    </edge>
    <edge id=":1031440982_6" function="internal">
        <lane id=":1031440982_6_0" index="0" disallow="tram rail_urban rail rail_electric rail_fast ship" speed="13.89" length="3.34" shape="1118.57,11672.17 1118.47,11672.13 1117.89,11671.45 1118.10,11670.58 1119.07,11669.52"/>
    </edge>
    <edge id=":1031440982_2" function="internal">
        <lane id=":1031440982_2_0" index="0" allow="pedestrian delivery bicycle" speed="9.72" length="7.56" shape="1111.85,11669.73 1113.80,11670.58 1115.32,11670.62 1116.90,11670.16 1119.07,11669.52"/>
    </edge>
    <edge id=":1031440982_3" function="internal">
        <lane id=":1031440982_3_0" index="0" allow="pedestrian delivery bicycle" speed="9.72" length="8.23" shape="1111.85,11669.73 1114.08,11671.27 1115.49,11672.85 1116.10,11674.47 1115.88,11676.12"/>
    </edge>
    <edge id=":1031440982_4" function="internal">
        <lane id=":1031440982_4_0" index="0" disallow="tram rail_urban rail rail_electric rail_fast ship" speed="13.89" length="8.63" shape="1112.88,11675.01 1113.88,11673.02 1115.25,11671.44 1116.98,11670.27 1119.07,11669.52"/>
    </edge>
    <edge id=":1031440982_5" function="internal">
        <lane id=":1031440982_5_0" index="0" disallow="tram rail_urban rail rail_electric rail_fast ship" speed="13.89" length="1.44" shape="1112.88,11675.01 1114.05,11674.16"/>
    </edge>
    <edge id=":1031440982_7" function="internal">
        <lane id=":1031440982_7_0" index="0" disallow="tram rail_urban rail rail_electric rail_fast ship" speed="13.89" length="3.23" shape="1114.05,11674.16 1114.94,11674.06 1115.55,11674.72 1115.88,11676.12"/>
    </edge>
    <edge id=":1031441015_0" function="internal">
        <lane id=":1031441015_0_0" index="0" allow="pedestrian delivery bicycle" speed="9.72" length="7.70" shape="1076.75,11183.04 1074.66,11182.78 1073.14,11181.92 1072.21,11180.44 1071.86,11178.36"/>
    </edge>
    <edge id=":1031441015_1" function="internal">
        <lane id=":1031441015_1_0" index="0" disallow="tram rail_urban rail rail_electric rail_fast ship" speed="13.89" length="4.67" shape="1076.75,11183.04 1075.53,11182.26 1075.12,11181.47 1075.50,11180.66 1076.69,11179.84"/>
    </edge>
    <edge id=":1031441015_2" function="internal">
        <lane id=":1031441015_2_0" index="0" allow="pedestrian delivery bicycle" speed="9.72" length="2.57" shape="1075.06,11178.28 1075.17,11178.97 1075.48,11179.46 1075.99,11179.75 1076.69,11179.84"/>
    </edge>
    <edge id=":1031441015_3" function="internal">
        <lane id=":1031441015_3_0" index="0" allow="pedestrian delivery bicycle" speed="5.56" length="4.67" shape="1075.06,11178.28 1074.29,11179.50 1073.50,11179.92 1072.69,11179.54 1071.86,11178.36"/>
    </edge>
    <edge id=":1031441038_0" function="internal">
        <lane id=":1031441038_0_0" index="0" disallow="tram rail_urban rail rail_electric rail_fast ship" speed="13.89" length="9.04" shape="1392.38,11815.18 1391.30,11812.91 1389.77,11811.61 1387.79,11811.29 1385.36,11811.93"/>
    </edge>
    <edge id=":1031441038_1" function="internal">
        <lane id=":1031441038_1_0" index="0" disallow="tram rail_urban rail rail_electric rail_fast ship" speed="13.89" length="15.08" shape="1392.38,11815.18 1387.91,11800.77"/>
    </edge>
    <edge id=":1031441038_2" function="internal">
        <lane id=":1031441038_2_0" index="0" disallow="tram rail_urban rail rail_electric rail_fast ship" speed="13.89" length="4.21" shape="1392.38,11815.18 1391.73,11811.20 1391.77,11811.02"/>
    </edge>
    <edge id=":1031441038_3" function="internal">
        <lane id=":1031441038_3_0" index="0" disallow="tram rail_urban rail rail_electric rail_fast ship" speed="13.89" length="1.44" shape="1392.38,11815.18 1392.79,11813.80"/>
    </edge>
    <edge id=":1031441038_16" function="internal">
        <lane id=":1031441038_16_0" index="0" disallow="tram rail_urban rail rail_electric rail_fast ship" speed="13.89" length="10.68" shape="1391.77,11811.02 1392.45,11807.86 1394.53,11805.16 1397.98,11803.08"/>
    </edge>
    <edge id=":1031441038_17" function="internal">
        <lane id=":1031441038_17_0" index="0" disallow="tram rail_urban rail rail_electric rail_fast ship" speed="13.89" length="3.23" shape="1392.79,11813.80 1393.43,11813.18 1394.32,11813.32 1395.44,11814.23"/>
    </edge>
    <edge id=":1031441038_4" function="internal">
        <lane id=":1031441038_4_0" index="0" disallow="tram rail_urban rail rail_electric rail_fast ship" speed="13.89" length="10.10" shape="1399.23,11806.03 1396.89,11807.43 1395.48,11809.27 1394.99,11811.54 1395.44,11814.23"/>
    </edge>
    <edge id=":1031441038_5" function="internal">
        <lane id=":1031441038_5_0" index="0" disallow="tram rail_urban rail rail_electric rail_fast ship" speed="13.89" length="15.08" shape="1399.23,11806.03 1385.36,11811.93"/>
    </edge>
    <edge id=":1031441038_6" function="internal">
        <lane id=":1031441038_6_0" index="0" disallow="tram rail_urban rail rail_electric rail_fast ship" speed="13.89" length="14.59" shape="1399.23,11806.03 1395.31,11807.06 1392.12,11806.53 1389.65,11804.44 1387.91,11800.77"/>
    </edge>
    <edge id=":1031441038_7" function="internal">
        <lane id=":1031441038_7_0" index="0" disallow="tram rail_urban rail rail_electric rail_fast ship" speed="13.89" length="4.67" shape="1399.23,11806.03 1397.82,11805.76 1397.14,11805.18 1397.19,11804.29 1397.98,11803.08"/>
    </edge>
    <edge id=":1031441038_8" function="internal">
        <lane id=":1031441038_8_0" index="0" disallow="tram rail_urban rail rail_electric rail_fast ship" speed="13.89" length="9.04" shape="1390.96,11799.83 1392.04,11802.10 1393.57,11803.40 1395.55,11803.72 1397.98,11803.08"/>
    </edge>
    <edge id=":1031441038_9" function="internal">
        <lane id=":1031441038_9_0" index="0" disallow="tram rail_urban rail rail_electric rail_fast ship" speed="13.89" length="15.08" shape="1390.96,11799.83 1395.44,11814.23"/>
    </edge>
    <edge id=":1031441038_10" function="internal">
        <lane id=":1031441038_10_0" index="0" disallow="tram rail_urban rail rail_electric rail_fast ship" speed="13.89" length="4.21" shape="1390.96,11799.83 1391.61,11803.80 1391.57,11803.98"/>
    </edge>
    <edge id=":1031441038_11" function="internal">
        <lane id=":1031441038_11_0" index="0" disallow="tram rail_urban rail rail_electric rail_fast ship" speed="13.89" length="1.44" shape="1390.96,11799.83 1390.56,11801.21"/>
    </edge>
    <edge id=":1031441038_18" function="internal">
        <lane id=":1031441038_18_0" index="0" disallow="tram rail_urban rail rail_electric rail_fast ship" speed="13.89" length="10.69" shape="1391.57,11803.98 1390.89,11807.14 1388.81,11809.85 1385.36,11811.93"/>
    </edge>
    <edge id=":1031441038_19" function="internal">
        <lane id=":1031441038_19_0" index="0" disallow="tram rail_urban rail rail_electric rail_fast ship" speed="13.89" length="3.23" shape="1390.56,11801.21 1389.91,11801.83 1389.03,11801.68 1387.91,11800.77"/>
    </edge>
    <edge id=":1031441038_12" function="internal">
        <lane id=":1031441038_12_0" index="0" disallow="tram rail_urban rail rail_electric rail_fast ship" speed="13.89" length="10.11" shape="1384.10,11808.99 1386.44,11807.58 1387.86,11805.74 1388.35,11803.47 1387.91,11800.77"/>
    </edge>
    <edge id=":1031441038_13" function="internal">
        <lane id=":1031441038_13_0" index="0" disallow="tram rail_urban rail rail_electric rail_fast ship" speed="13.89" length="15.09" shape="1384.10,11808.99 1397.98,11803.08"/>
    </edge>
    <edge id=":1031441038_14" function="internal">
        <lane id=":1031441038_14_0" index="0" disallow="tram rail_urban rail rail_electric rail_fast ship" speed="13.89" length="14.60" shape="1384.10,11808.99 1388.02,11807.95 1391.22,11808.47 1393.69,11810.57 1395.44,11814.23"/>
    </edge>
    <edge id=":1031441038_15" function="internal">
        <lane id=":1031441038_15_0" index="0" disallow="tram rail_urban rail rail_electric rail_fast ship" speed="13.89" length="4.67" shape="1384.10,11808.99 1385.52,11809.26 1386.20,11809.83 1386.15,11810.73 1385.36,11811.93"/>
    </edge>
    <edge id=":1031441081_0" function="internal">
        <lane id=":1031441081_0_0" index="0" disallow="tram rail_urban rail rail_electric rail_fast ship" speed="13.89" length="4.67" shape="2017.97,11691.76 2019.32,11692.27 2019.90,11692.95 2019.69,11693.82 2018.71,11694.88"/>
    </edge>
    <edge id=":1031441085_0" function="internal">
        <lane id=":1031441085_0_0" index="0" allow="pedestrian delivery bicycle" speed="13.89" length="6.27" shape="1193.13,12037.51 1192.21,12036.09 1191.04,12035.24 1189.62,12034.95 1187.95,12035.22"/>
    </edge>
    <edge id=":1031441085_1" function="internal">
        <lane id=":1031441085_1_0" index="0" allow="pedestrian delivery bicycle" speed="5.56" length="10.04" shape="1193.13,12037.51 1188.91,12028.40"/>
    </edge>
    <edge id=":1031441085_2" function="internal">
        <lane id=":1031441085_2_0" index="0" allow="pedestrian delivery bicycle" speed="5.56" length="1.44" shape="1193.13,12037.51 1193.35,12036.08"/>
    </edge>
    <edge id=":1031441085_10" function="internal">
        <lane id=":1031441085_10_0" index="0" allow="pedestrian delivery bicycle" speed="5.56" length="3.23" shape="1193.35,12036.08 1193.90,12035.38 1194.80,12035.41 1196.03,12036.16"/>
    </edge>
    <edge id=":1031441085_3" function="internal">
        <lane id=":1031441085_3_0" index="0" allow="pedestrian delivery bicycle" speed="13.89" length="5.16" shape="1197.79,12032.14 1196.49,12032.77 1195.77,12033.65 1195.61,12034.78 1196.03,12036.16"/>
    </edge>
    <edge id=":1031441085_4" function="internal">
        <lane id=":1031441085_4_0" index="0" disallow="tram rail_urban rail rail_electric rail_fast ship" speed="22.22" length="10.29" shape="1197.79,12032.14 1187.95,12035.22"/>
        <lane id=":1031441085_4_1" index="1" disallow="tram rail_urban rail rail_electric rail_fast ship" speed="22.22" length="10.29" shape="1196.81,12029.09 1187.01,12032.16"/>
    </edge>
    <edge id=":1031441085_6" function="internal">
        <lane id=":1031441085_6_0" index="0" allow="pedestrian delivery bicycle" speed="13.89" length="8.56" shape="1196.81,12029.09 1193.84,12029.84 1191.53,12029.98 1189.89,12029.50 1188.91,12028.40"/>
    </edge>
    <edge id=":1031441085_7" function="internal">
        <lane id=":1031441085_7_0" index="0" allow="pedestrian delivery bicycle" speed="5.56" length="10.02" shape="1191.82,12027.06 1196.03,12036.16"/>
    </edge>
    <edge id=":1031441085_8" function="internal">
        <lane id=":1031441085_8_0" index="0" allow="pedestrian delivery bicycle" speed="13.89" length="1.73" shape="1191.82,12027.06 1192.07,12028.57 1191.97,12028.75"/>
    </edge>
    <edge id=":1031441085_9" function="internal">
        <lane id=":1031441085_9_0" index="0" allow="pedestrian delivery bicycle" speed="5.56" length="1.44" shape="1191.82,12027.06 1191.59,12028.49"/>
    </edge>
    <edge id=":1031441085_11" function="internal">
        <lane id=":1031441085_11_0" index="0" allow="pedestrian delivery bicycle" speed="13.89" length="6.24" shape="1191.97,12028.75 1191.35,12029.93 1189.66,12031.12 1187.01,12032.16"/>
    </edge>
    <edge id=":1031441085_12" function="internal">
        <lane id=":1031441085_12_0" index="0" allow="pedestrian delivery bicycle" speed="5.56" length="3.23" shape="1191.59,12028.49 1191.03,12029.19 1190.14,12029.16 1188.91,12028.40"/>
    </edge>
    <edge id=":1031441098_0" function="internal">
        <lane id=":1031441098_0_0" index="0" disallow="tram rail_urban rail rail_electric rail_fast ship" speed="13.89" length="10.25" shape="1443.59,11676.33 1442.10,11674.02 1440.20,11672.62 1437.88,11672.11 1435.14,11672.49"/>
    </edge>
    <edge id=":1031441098_1" function="internal">
        <lane id=":1031441098_1_0" index="0" disallow="tram rail_urban rail rail_electric rail_fast ship" speed="13.89" length="15.03" shape="1443.59,11676.33 1437.77,11662.47"/>
    </edge>
    <edge id=":1031441098_2" function="internal">
        <lane id=":1031441098_2_0" index="0" disallow="tram rail_urban rail rail_electric rail_fast ship" speed="13.89" length="4.43" shape="1443.59,11676.33 1442.43,11672.49 1442.49,11672.08"/>
    </edge>
    <edge id=":1031441098_3" function="internal">
        <lane id=":1031441098_3_0" index="0" disallow="tram rail_urban rail rail_electric rail_fast ship" speed="13.89" length="1.44" shape="1443.59,11676.33 1443.81,11674.90"/>
    </edge>
    <edge id=":1031441098_16" function="internal">
        <lane id=":1031441098_16_0" index="0" disallow="tram rail_urban rail rail_electric rail_fast ship" speed="13.89" length="10.05" shape="1442.49,11672.08 1442.83,11669.29 1444.78,11666.71 1448.28,11664.76"/>
    </edge>
    <edge id=":1031441098_17" function="internal">
        <lane id=":1031441098_17_0" index="0" disallow="tram rail_urban rail rail_electric rail_fast ship" speed="13.89" length="3.23" shape="1443.81,11674.90 1444.37,11674.20 1445.26,11674.23 1446.49,11674.98"/>
    </edge>
    <edge id=":1031441098_4" function="internal">
        <lane id=":1031441098_4_0" index="0" disallow="tram rail_urban rail rail_electric rail_fast ship" speed="13.89" length="9.04" shape="1449.42,11667.75 1447.23,11668.97 1446.02,11670.58 1445.77,11672.58 1446.49,11674.98"/>
    </edge>
    <edge id=":1031441098_5" function="internal">
        <lane id=":1031441098_5_0" index="0" disallow="tram rail_urban rail rail_electric rail_fast ship" speed="13.89" length="15.05" shape="1449.42,11667.75 1445.89,11669.05 1442.33,11670.28 1438.75,11671.43 1435.14,11672.49"/>
    </edge>
    <edge id=":1031441098_6" function="internal">
        <lane id=":1031441098_6_0" index="0" disallow="tram rail_urban rail rail_electric rail_fast ship" speed="13.89" length="14.60" shape="1449.42,11667.75 1445.52,11668.63 1442.28,11668.05 1439.70,11665.99 1437.77,11662.47"/>
    </edge>
    <edge id=":1031441098_7" function="internal">
        <lane id=":1031441098_7_0" index="0" disallow="tram rail_urban rail rail_electric rail_fast ship" speed="13.89" length="4.67" shape="1449.42,11667.75 1448.01,11667.43 1447.35,11666.83 1447.44,11665.94 1448.28,11664.76"/>
    </edge>
    <edge id=":1031441098_8" function="internal">
        <lane id=":1031441098_8_0" index="0" disallow="tram rail_urban rail rail_electric rail_fast ship" speed="13.89" length="9.42" shape="1440.76,11661.35 1442.01,11663.62 1443.68,11664.95 1445.77,11665.33 1448.28,11664.76"/>
    </edge>
    <edge id=":1031441098_9" function="internal">
        <lane id=":1031441098_9_0" index="0" disallow="tram rail_urban rail rail_electric rail_fast ship" speed="13.89" length="14.78" shape="1440.76,11661.35 1446.49,11674.98"/>
    </edge>
    <edge id=":1031441098_10" function="internal">
        <lane id=":1031441098_10_0" index="0" disallow="tram rail_urban rail rail_electric rail_fast ship" speed="13.89" length="3.87" shape="1440.76,11661.35 1441.60,11665.13"/>
    </edge>
    <edge id=":1031441098_11" function="internal">
        <lane id=":1031441098_11_0" index="0" disallow="tram rail_urban rail rail_electric rail_fast ship" speed="13.89" length="1.44" shape="1440.76,11661.35 1440.44,11662.75"/>
    </edge>
    <edge id=":1031441098_18" function="internal">
        <lane id=":1031441098_18_0" index="0" disallow="tram rail_urban rail rail_electric rail_fast ship" speed="13.89" length="10.64" shape="1441.60,11665.13 1441.63,11665.28 1440.98,11668.45 1438.82,11670.85 1435.14,11672.49"/>
    </edge>
    <edge id=":1031441098_19" function="internal">
        <lane id=":1031441098_19_0" index="0" disallow="tram rail_urban rail rail_electric rail_fast ship" speed="13.89" length="3.23" shape="1440.44,11662.75 1439.83,11663.41 1438.94,11663.32 1437.77,11662.47"/>
    </edge>
    <edge id=":1031441098_12" function="internal">