<?xml version="1.0" encoding="UTF-8"?>

<!-- generated on 2024-08-02 21:09:20 by Eclipse SUMO netconvert Version 1.20.0
<configuration xmlns:xsi="http://www.w3.org/2001/XMLSchema-instance" xsi:noNamespaceSchemaLocation="http://sumo.dlr.de/xsd/netconvertConfiguration.xsd">

    <input>
        <osm-files value="map.osm"/>
    </input>

    <output>
        <output-file value="hamasing.net.xml"/>
    </output>

    <projection>
        <proj.utm value="true"/>
    </projection>

</configuration>
-->

<net version="1.20" junctionCornerDetail="5" limitTurnSpeed="5.50" xmlns:xsi="http://www.w3.org/2001/XMLSchema-instance" xsi:noNamespaceSchemaLocation="http://sumo.dlr.de/xsd/net_file.xsd">

    <location netOffset="-219036.10,-2503753.75" convBoundary="0.00,0.00,12473.41,1477.95" origBoundary="116.728100,20.697683,120.387912,23.562157" projParameter="+proj=utm +zone=51 +ellps=WGS84 +datum=WGS84 +units=m +no_defs"/>

    <type id="highway.cycleway" priority="1" numLanes="1" speed="5.56" allow="bicycle" oneway="0" width="2.00"/>
    <type id="highway.footway" priority="1" numLanes="1" speed="2.78" allow="pedestrian" oneway="1" width="2.00"/>
    <type id="highway.living_street" priority="2" numLanes="1" speed="2.78" disallow="tram rail_urban rail rail_electric rail_fast ship container cable_car subway aircraft wheelchair scooter drone" oneway="0"/>
    <type id="highway.path" priority="1" numLanes="1" speed="5.56" allow="pedestrian bicycle" oneway="0" width="2.00"/>
    <type id="highway.pedestrian" priority="1" numLanes="1" speed="2.78" allow="pedestrian" oneway="1" width="2.00"/>
    <type id="highway.residential" priority="3" numLanes="1" speed="13.89" disallow="tram rail_urban rail rail_electric rail_fast ship container cable_car subway aircraft wheelchair scooter drone" oneway="0"/>
    <type id="highway.service" priority="1" numLanes="1" speed="5.56" allow="pedestrian delivery bicycle" oneway="0"/>
    <type id="highway.steps" priority="1" numLanes="1" speed="1.39" allow="pedestrian" oneway="1" width="2.00"/>
    <type id="highway.tertiary" priority="10" numLanes="1" speed="22.22" disallow="tram rail_urban rail rail_electric rail_fast ship container cable_car subway aircraft wheelchair scooter drone" oneway="0"/>
    <type id="railway.light_rail" priority="19" numLanes="1" speed="27.78" allow="rail_urban" oneway="1"/>
    <type id="railway.rail" priority="20" numLanes="1" speed="44.44" allow="rail" oneway="1"/>
    <type id="railway.subway" priority="18" numLanes="1" speed="27.78" allow="subway" oneway="1"/>

    <edge id=":10185987536_0" function="internal">
        <lane id=":10185987536_0_0" index="0" allow="pedestrian bicycle" speed="2.89" length="2.92" width="2.00" shape="747.99,790.99 748.81,790.61 749.37,790.66 749.66,791.14 749.69,792.04"/>
    </edge>
    <edge id=":10185987539_0" function="internal">
        <lane id=":10185987539_0_0" index="0" allow="pedestrian bicycle" speed="2.89" length="2.92" width="2.00" shape="708.82,816.43 708.32,815.68 708.29,815.13 708.71,814.76 709.60,814.59"/>
    </edge>
    <edge id=":1085529767_0" function="internal">
        <lane id=":1085529767_0_0" index="0" allow="pedestrian delivery bicycle" speed="3.65" length="4.67" shape="256.79,747.83 255.44,747.32 254.88,746.62 255.09,745.75 256.09,744.71"/>
    </edge>
    <edge id=":1085529850_0" function="internal">
        <lane id=":1085529850_0_0" index="0" allow="pedestrian delivery bicycle" speed="5.62" length="5.40" shape="283.81,744.55 283.08,743.50 282.06,742.86 280.76,742.62 279.18,742.81"/>
    </edge>
    <edge id=":1085529850_1" function="internal">
        <lane id=":1085529850_1_0" index="0" disallow="tram rail_urban rail rail_electric rail_fast ship container cable_car subway aircraft wheelchair scooter drone" speed="13.89" length="8.19" shape="283.81,744.55 282.79,742.35 282.15,740.81 281.64,739.23 281.01,736.88"/>
    </edge>
    <edge id=":1085529850_2" function="internal">
        <lane id=":1085529850_2_0" index="0" disallow="tram rail_urban rail rail_electric rail_fast ship container cable_car subway aircraft wheelchair scooter drone" speed="13.89" length="7.60" shape="284.10,736.07 284.69,738.25 285.16,739.72 285.76,741.15 286.71,743.19"/>
    </edge>
    <edge id=":1085529850_3" function="internal">
        <lane id=":1085529850_3_0" index="0" allow="pedestrian delivery bicycle" speed="6.60" length="2.77" shape="284.10,736.07 284.32,738.48 284.20,738.80"/>
    </edge>
    <edge id=":1085529850_7" function="internal">
        <lane id=":1085529850_7_0" index="0" allow="pedestrian delivery bicycle" speed="6.60" length="6.81" shape="284.20,738.80 283.57,740.41 281.86,741.85 279.18,742.81"/>
    </edge>
    <edge id=":1085529850_4" function="internal">
        <lane id=":1085529850_4_0" index="0" allow="pedestrian delivery bicycle" speed="4.69" length="4.29" shape="278.48,739.68 279.79,739.25 280.65,738.64 281.06,737.85 281.01,736.88"/>
    </edge>
    <edge id=":1085529850_5" function="internal">
        <lane id=":1085529850_5_0" index="0" allow="pedestrian delivery bicycle" speed="7.33" length="9.77" shape="278.48,739.68 281.23,739.40 283.51,739.89 285.34,741.16 286.71,743.19"/>
    </edge>
    <edge id=":1085529850_6" function="internal">
        <lane id=":1085529850_6_0" index="0" allow="pedestrian delivery bicycle" speed="3.65" length="4.67" shape="278.48,739.68 279.83,740.20 280.39,740.89 280.18,741.76 279.18,742.81"/>
    </edge>
    <edge id=":11034463954_0" function="internal">
        <lane id=":11034463954_0_0" index="0" allow="pedestrian delivery bicycle" speed="5.56" length="5.01" shape="332.39,247.06 330.92,247.21 329.90,247.22 328.88,247.18 327.39,247.15"/>
    </edge>
    <edge id=":11034463954_1" function="internal">
        <lane id=":11034463954_1_0" index="0" allow="pedestrian delivery bicycle" speed="3.66" length="4.71" shape="332.39,247.06 331.18,246.26 330.78,245.45 331.18,244.65 332.39,243.84"/>
    </edge>
    <edge id=":11034463954_2" function="internal">
        <lane id=":11034463954_2_0" index="0" allow="pedestrian delivery bicycle" speed="5.56" length="5.00" shape="327.39,243.95 328.88,243.97 329.90,244.01 330.91,243.99 332.39,243.84"/>
    </edge>
    <edge id=":11034463954_3" function="internal">
        <lane id=":11034463954_3_0" index="0" allow="pedestrian delivery bicycle" speed="3.65" length="4.67" shape="327.39,243.95 328.59,244.75 328.99,245.55 328.59,246.35 327.39,247.15"/>
    </edge>
    <edge id=":11330980233_0" function="internal">
        <lane id=":11330980233_0_0" index="0" allow="rail_urban" speed="13.89" length="29.77" shape="984.19,334.64 1010.73,321.16"/>
    </edge>
    <edge id=":11330980233_1" function="internal">
        <lane id=":11330980233_1_0" index="0" allow="rail_urban" speed="20.83" length="29.77" shape="984.19,334.64 989.78,332.33 998.06,329.27 1006.37,326.29 1012.08,324.25"/>
    </edge>
    <edge id=":11330980237_0" function="internal">
        <lane id=":11330980237_0_0" index="0" allow="rail_urban" speed="13.89" length="3.02" shape="1014.86,323.07 1012.17,324.44"/>
    </edge>
    <edge id=":11409087359_0" function="internal">
        <lane id=":11409087359_0_0" index="0" allow="pedestrian delivery bicycle" speed="5.16" length="5.12" shape="365.60,237.24 365.73,238.67 366.25,239.74 367.16,240.42 368.48,240.74"/>
    </edge>
    <edge id=":11409087359_1" function="internal">
        <lane id=":11409087359_1_0" index="0" allow="pedestrian delivery bicycle" speed="3.65" length="4.67" shape="365.60,237.24 364.75,238.40 363.93,238.77 363.15,238.33 362.40,237.10"/>
    </edge>
    <edge id=":11409087359_2" function="internal">
        <lane id=":11409087359_2_0" index="0" allow="pedestrian delivery bicycle" speed="5.01" length="5.03" shape="359.13,240.01 360.51,239.91 361.51,239.39 362.15,238.45 362.40,237.10"/>
    </edge>
    <edge id=":11409087359_3" function="internal">
        <lane id=":11409087359_3_0" index="0" disallow="tram rail_urban rail rail_electric rail_fast ship container cable_car subway aircraft wheelchair scooter drone" speed="13.89" length="9.38" shape="359.13,240.01 368.48,240.74"/>
    </edge>
    <edge id=":11409087360_0" function="internal">
        <lane id=":11409087360_0_0" index="0" allow="pedestrian delivery bicycle" speed="5.56" length="0.30" shape="365.71,234.75 365.70,235.05"/>
    </edge>
    <edge id=":11409087360_1" function="internal">
        <lane id=":11409087360_1_0" index="0" allow="pedestrian delivery bicycle" speed="5.56" length="0.30" shape="362.50,234.91 362.52,234.61"/>
    </edge>
    <edge id=":11409087361_0" function="internal">
        <lane id=":11409087361_0_0" index="0" allow="pedestrian delivery bicycle" speed="5.56" length="0.10" shape="366.67,212.78 366.67,212.79"/>
    </edge>
    <edge id=":11409087361_1" function="internal">
        <lane id=":11409087361_1_0" index="0" allow="pedestrian delivery bicycle" speed="5.56" length="0.10" shape="363.47,212.65 363.47,212.65"/>
    </edge>
    <edge id=":11409087363_0" function="internal">
        <lane id=":11409087363_0_0" index="0" allow="pedestrian delivery bicycle" speed="5.56" length="5.00" shape="366.97,205.92 366.75,210.91"/>
    </edge>
    <edge id=":11409087363_1" function="internal">
        <lane id=":11409087363_1_0" index="0" allow="pedestrian delivery bicycle" speed="3.65" length="4.67" shape="366.97,205.92 366.12,207.08 365.30,207.45 364.52,207.01 363.77,205.78"/>
    </edge>
    <edge id=":11409087363_2" function="internal">
        <lane id=":11409087363_2_0" index="0" allow="pedestrian delivery bicycle" speed="5.56" length="5.00" shape="363.55,210.77 363.77,205.78"/>
    </edge>
    <edge id=":11409087363_3" function="internal">
        <lane id=":11409087363_3_0" index="0" allow="pedestrian delivery bicycle" speed="3.65" length="4.67" shape="363.55,210.77 364.40,209.61 365.22,209.25 366.00,209.68 366.75,210.91"/>
    </edge>
    <edge id=":11595494188_0" function="internal">
        <lane id=":11595494188_0_0" index="0" disallow="tram rail_urban rail rail_electric rail_fast ship container cable_car subway aircraft wheelchair scooter drone" speed="22.22" length="9.23" shape="924.89,359.23 916.92,363.88"/>
    </edge>
    <edge id=":11595494188_1" function="internal">
        <lane id=":11595494188_1_0" index="0" allow="pedestrian bicycle" speed="13.89" length="7.39" shape="915.17,361.20 916.88,359.90 917.81,358.74 918.52,357.36 919.55,355.42"/>
    </edge>
    <edge id=":11595494188_2" function="internal">
        <lane id=":11595494188_2_0" index="0" disallow="tram rail_urban rail rail_electric rail_fast ship container cable_car subway aircraft wheelchair scooter drone" speed="22.22" length="9.37" shape="915.17,361.20 923.26,356.47"/>
    </edge>
    <edge id=":11598558665_0" function="internal">
        <lane id=":11598558665_0_0" index="0" allow="rail_urban" speed="20.83" length="0.27" shape="943.45,444.48 943.55,444.73"/>
    </edge>
    <edge id=":11598558666_0" function="internal">
        <lane id=":11598558666_0_0" index="0" allow="rail_urban" speed="20.83" length="0.30" shape="940.59,437.36 940.71,437.64"/>
    </edge>
    <edge id=":11598558667_0" function="internal">
        <lane id=":11598558667_0_0" index="0" allow="rail_urban" speed="20.83" length="0.27" shape="941.11,445.90 941.01,445.65"/>
    </edge>
    <edge id=":11598558668_0" function="internal">
        <lane id=":11598558668_0_0" index="0" allow="rail_urban" speed="20.83" length="0.29" shape="938.15,438.93 938.03,438.66"/>
    </edge>
    <edge id=":11598582374_0" function="internal">
        <lane id=":11598582374_0_0" index="0" allow="rail" speed="44.44" length="5.92" shape="923.28,425.47 920.88,420.06"/>
    </edge>
    <edge id=":11598582376_0" function="internal">
        <lane id=":11598582376_0_0" index="0" allow="rail" speed="44.44" length="5.04" shape="942.96,471.08 940.95,466.46"/>
    </edge>
    <edge id=":11598582389_0" function="internal">
        <lane id=":11598582389_0_0" index="0" allow="rail" speed="44.44" length="4.60" shape="919.68,427.18 917.85,422.97"/>
    </edge>
    <edge id=":11598582390_0" function="internal">
        <lane id=":11598582390_0_0" index="0" allow="rail" speed="44.44" length="5.02" shape="939.38,472.60 937.39,468.00"/>
    </edge>
    <edge id=":11598582393_0" function="internal">
        <lane id=":11598582393_0_0" index="0" allow="rail" speed="44.44" length="2.66" shape="935.59,453.98 934.54,451.54"/>
    </edge>
    <edge id=":11598582393_1" function="internal">
        <lane id=":11598582393_1_0" index="0" allow="rail" speed="2.88" length="1.66" shape="934.29,451.71 934.64,452.20 934.80,452.33 934.77,452.11 934.54,451.54"/>
    </edge>
    <edge id=":11598582395_0" function="internal">
        <lane id=":11598582395_0_0" index="0" allow="rail" speed="44.44" length="4.84" shape="918.10,422.64 918.97,423.78 919.53,424.58 920.03,425.44 920.71,426.70"/>
    </edge>
    <edge id=":11598582396_0" function="internal">
        <lane id=":11598582396_0_0" index="0" allow="rail" speed="44.44" length="2.11" shape="917.77,422.78 916.93,420.85"/>
    </edge>
    <edge id=":11598582397_0" function="internal">
        <lane id=":11598582397_0_0" index="0" allow="rail" speed="44.44" length="2.52" shape="939.97,464.28 938.96,461.98"/>
    </edge>
    <edge id=":11598582398_0" function="internal">
        <lane id=":11598582398_0_0" index="0" allow="rail" speed="44.44" length="5.49" shape="941.60,465.86 942.56,467.17 943.19,468.09 943.74,469.06 944.47,470.52"/>
    </edge>
    <edge id=":11598582403_0" function="internal">
        <lane id=":11598582403_0_0" index="0" allow="rail" speed="44.44" length="2.99" shape="1045.07,686.07 1043.45,683.55"/>
    </edge>
    <edge id=":11598582422_0" function="internal">
        <lane id=":11598582422_0_0" index="0" disallow="tram rail_urban rail rail_electric rail_fast ship container cable_car subway aircraft wheelchair scooter drone" speed="22.22" length="0.10" shape="1010.91,685.87 1010.91,685.87"/>
    </edge>
    <edge id=":11602252703_0" function="internal">
        <lane id=":11602252703_0_0" index="0" disallow="tram rail_urban rail rail_electric rail_fast ship container cable_car subway aircraft wheelchair scooter drone" speed="13.89" length="0.30" shape="760.29,239.52 760.28,239.22"/>
    </edge>
    <edge id=":11602252703_1" function="internal">
        <lane id=":11602252703_1_0" index="0" disallow="tram rail_urban rail rail_electric rail_fast ship container cable_car subway aircraft wheelchair scooter drone" speed="13.89" length="0.30" shape="763.48,239.08 763.49,239.38"/>
    </edge>
    <edge id=":11602252727_0" function="internal">
        <lane id=":11602252727_0_0" index="0" disallow="tram rail_urban rail rail_electric rail_fast ship container cable_car subway aircraft wheelchair scooter drone" speed="3.65" length="4.67" shape="1019.27,307.07 1020.71,307.25 1021.42,307.79 1021.42,308.68 1020.71,309.94"/>
    </edge>
    <edge id=":11602252731_0" function="internal">
        <lane id=":11602252731_0_0" index="0" allow="pedestrian bicycle" speed="5.56" length="7.77" shape="917.14,277.57 916.47,278.82 915.11,279.52 913.06,279.67 910.32,279.27"/>
    </edge>
    <edge id=":11602252731_1" function="internal">
        <lane id=":11602252731_1_0" index="0" allow="pedestrian bicycle" speed="3.65" length="4.67" shape="917.14,277.57 916.11,278.57 915.24,278.80 914.54,278.24 914.01,276.90"/>
    </edge>
    <edge id=":11602252731_2" function="internal">
        <lane id=":11602252731_2_0" index="0" allow="pedestrian bicycle" speed="5.56" length="6.38" shape="914.48,283.25 914.38,281.89 913.66,280.77 912.31,279.90 910.32,279.27"/>
    </edge>
    <edge id=":11602252731_3" function="internal">
        <lane id=":11602252731_3_0" index="0" allow="pedestrian bicycle" speed="5.56" length="6.43" shape="914.48,283.25 914.51,281.36 914.17,280.06 913.87,278.76 914.01,276.90"/>
    </edge>
    <edge id=":11602252732_0" function="internal">
        <lane id=":11602252732_0_0" index="0" allow="pedestrian bicycle" speed="5.04" length="5.04" shape="896.54,276.23 895.15,276.12 894.07,276.48 893.29,277.31 892.82,278.60"/>
    </edge>
    <edge id=":11602252732_1" function="internal">
        <lane id=":11602252732_1_0" index="0" allow="pedestrian bicycle" speed="5.56" length="7.85" shape="896.54,276.23 893.88,275.44 892.09,274.42 891.17,273.17 891.14,271.71"/>
    </edge>
    <edge id=":11602252732_2" function="internal">
        <lane id=":11602252732_2_0" index="0" allow="pedestrian bicycle" speed="5.56" length="6.27" shape="894.24,272.50 892.82,278.60"/>
    </edge>
    <edge id=":11602252732_3" function="internal">
        <lane id=":11602252732_3_0" index="0" allow="pedestrian bicycle" speed="3.65" length="4.67" shape="894.24,272.50 893.17,273.46 892.29,273.65 891.62,273.07 891.14,271.71"/>
    </edge>
    <edge id=":11602252732_4" function="internal">
        <lane id=":11602252732_4_0" index="0" allow="pedestrian bicycle" speed="5.56" length="6.41" shape="889.69,277.95 891.14,271.71"/>
    </edge>
    <edge id=":11602252732_5" function="internal">
        <lane id=":11602252732_5_0" index="0" allow="pedestrian bicycle" speed="3.65" length="4.67" shape="889.69,277.95 890.72,276.94 891.58,276.71 892.29,277.26 892.82,278.60"/>
    </edge>
    <edge id=":11602252736_0" function="internal">
        <lane id=":11602252736_0_0" index="0" allow="pedestrian bicycle" speed="3.65" length="4.67" shape="890.81,288.25 889.78,289.26 888.91,289.49 888.21,288.93 887.67,287.60"/>
    </edge>
    <edge id=":11602252737_0" function="internal">
        <lane id=":11602252737_0_0" index="0" allow="pedestrian bicycle" speed="3.65" length="4.67" shape="918.45,256.21 919.48,255.20 920.35,254.98 921.05,255.54 921.58,256.88"/>
    </edge>
    <edge id=":11602252738_0" function="internal">
        <lane id=":11602252738_0_0" index="0" allow="pedestrian bicycle" speed="5.56" length="12.12" shape="891.41,330.79 889.64,328.01 887.98,325.81 886.20,323.69 884.09,321.15"/>
    </edge>
    <edge id=":11602252738_1" function="internal">
        <lane id=":11602252738_1_0" index="0" allow="pedestrian bicycle" speed="5.56" length="11.25" shape="891.41,330.79 890.14,327.96 889.84,325.57 890.05,323.06 890.35,319.85"/>
    </edge>
    <edge id=":11602252738_2" function="internal">
        <lane id=":11602252738_2_0" index="0" allow="pedestrian bicycle" speed="3.65" length="4.67" shape="891.41,330.79 891.49,329.35 891.98,328.60 892.88,328.54 894.17,329.17"/>
    </edge>
    <edge id=":11602252738_3" function="internal">
        <lane id=":11602252738_3_0" index="0" allow="pedestrian bicycle" speed="5.56" length="9.45" shape="893.54,320.01 893.22,322.82 892.90,324.82 893.06,326.71 894.17,329.17"/>
    </edge>
    <edge id=":11602252738_4" function="internal">
        <lane id=":11602252738_4_0" index="0" allow="pedestrian bicycle" speed="5.56" length="15.96" shape="893.54,320.01 892.73,324.63 890.88,326.36 888.00,325.20 884.09,321.15"/>
    </edge>
    <edge id=":11602252738_5" function="internal">
        <lane id=":11602252738_5_0" index="0" allow="pedestrian bicycle" speed="3.65" length="4.67" shape="893.54,320.01 892.68,321.17 891.87,321.53 891.09,321.09 890.35,319.85"/>
    </edge>
    <edge id=":11602252738_6" function="internal">
        <lane id=":11602252738_6_0" index="0" allow="pedestrian bicycle" speed="4.40" length="5.86" shape="886.58,319.14 888.16,320.85 889.31,321.54 890.04,321.21 890.35,319.85"/>
    </edge>
    <edge id=":11602252738_7" function="internal">
        <lane id=":11602252738_7_0" index="0" allow="pedestrian bicycle" speed="5.56" length="12.60" shape="886.58,319.14 888.74,321.74 890.61,324.00 892.36,326.33 894.17,329.17"/>
    </edge>
    <edge id=":11602252738_8" function="internal">
        <lane id=":11602252738_8_0" index="0" allow="pedestrian bicycle" speed="3.65" length="4.67" shape="886.58,319.14 886.71,320.58 886.34,321.39 885.47,321.58 884.09,321.15"/>
    </edge>
    <edge id=":11602252740_0" function="internal">
        <lane id=":11602252740_0_0" index="0" disallow="tram rail_urban rail rail_electric rail_fast ship container cable_car subway aircraft wheelchair scooter drone" speed="22.22" length="11.70" shape="908.97,369.07 899.18,375.46"/>
    </edge>
    <edge id=":11602252740_1" function="internal">
        <lane id=":11602252740_1_0" index="0" allow="pedestrian bicycle" speed="4.15" length="5.28" shape="902.45,362.44 902.66,363.98 903.20,364.50 904.08,363.98 905.29,362.45"/>
    </edge>
    <edge id=":11602252740_2" function="internal">
        <lane id=":11602252740_2_0" index="0" allow="pedestrian bicycle" speed="5.42" length="8.48" shape="902.45,362.44 902.80,365.30 903.71,366.91 905.19,367.27 907.22,366.39"/>
    </edge>
    <edge id=":11602252740_3" function="internal">
        <lane id=":11602252740_3_0" index="0" allow="pedestrian bicycle" speed="9.31" length="11.21" shape="897.43,372.78 898.29,371.61 898.88,369.42 899.20,366.20 899.24,361.95"/>
    </edge>
    <edge id=":11602252740_4" function="internal">
        <lane id=":11602252740_4_0" index="0" allow="pedestrian bicycle" speed="13.89" length="13.11" shape="897.43,372.78 900.03,370.60 901.88,368.14 903.47,365.43 905.29,362.45"/>
    </edge>
    <edge id=":11602252740_5" function="internal">
        <lane id=":11602252740_5_0" index="0" disallow="tram rail_urban rail rail_electric rail_fast ship container cable_car subway aircraft wheelchair scooter drone" speed="22.22" length="11.70" shape="897.43,372.78 907.22,366.39"/>
    </edge>
    <edge id=":11602252752_0" function="internal">
        <lane id=":11602252752_0_0" index="0" allow="pedestrian bicycle" speed="5.56" length="5.06" shape="904.60,278.00 899.65,276.91"/>
    </edge>
    <edge id=":11602252756_0" function="internal">
        <lane id=":11602252756_0_0" index="0" allow="pedestrian bicycle" speed="5.56" length="3.65" shape="899.24,361.75 899.16,358.10"/>
    </edge>
    <edge id=":11602252756_1" function="internal">
        <lane id=":11602252756_1_0" index="0" allow="pedestrian bicycle" speed="3.67" length="1.33" shape="899.24,361.75 900.14,360.76"/>
    </edge>
    <edge id=":11602252756_4" function="internal">
        <lane id=":11602252756_4_0" index="0" allow="pedestrian bicycle" speed="3.67" length="3.41" shape="900.14,360.76 900.22,360.67 901.09,360.39 901.83,360.91 902.45,362.24"/>
    </edge>
    <edge id=":11602252756_2" function="internal">
        <lane id=":11602252756_2_0" index="0" allow="pedestrian bicycle" speed="5.56" length="4.20" shape="902.36,358.04 902.45,362.24"/>
    </edge>
    <edge id=":11602252756_3" function="internal">
        <lane id=":11602252756_3_0" index="0" allow="pedestrian bicycle" speed="3.65" length="1.44" shape="902.36,358.04 901.59,359.25"/>
    </edge>
    <edge id=":11602252756_5" function="internal">
        <lane id=":11602252756_5_0" index="0" allow="pedestrian bicycle" speed="3.65" length="3.23" shape="901.59,359.25 900.80,359.67 899.99,359.28 899.16,358.10"/>
    </edge>
    <edge id=":11602252757_0" function="internal">
        <lane id=":11602252757_0_0" index="0" allow="pedestrian bicycle" speed="5.56" length="9.62" shape="919.66,355.25 924.56,346.97"/>
    </edge>
    <edge id=":11602252758_0" function="internal">
        <lane id=":11602252758_0_0" index="0" allow="pedestrian bicycle" speed="5.56" length="10.55" shape="905.40,362.28 911.28,353.52"/>
    </edge>
    <edge id=":11602260846_0" function="internal">
        <lane id=":11602260846_0_0" index="0" allow="pedestrian bicycle" speed="2.89" length="2.92" width="2.00" shape="1120.25,431.53 1121.15,431.57 1121.63,431.86 1121.68,432.42 1121.30,433.24"/>
    </edge>
    <edge id=":11603044928_0" function="internal">
        <lane id=":11603044928_0_0" index="0" allow="pedestrian bicycle" speed="5.56" length="0.20" width="2.00" shape="983.59,512.08 983.76,511.98"/>
    </edge>
    <edge id=":11603044928_1" function="internal">
        <lane id=":11603044928_1_0" index="0" allow="pedestrian bicycle" speed="5.56" length="0.19" width="2.00" shape="982.77,510.24 982.61,510.34"/>
    </edge>
    <edge id=":11603044929_0" function="internal">
        <lane id=":11603044929_0_0" index="0" allow="pedestrian bicycle" speed="5.56" length="0.30" width="2.00" shape="987.04,510.13 986.78,510.28"/>
    </edge>
    <edge id=":11603044929_1" function="internal">
        <lane id=":11603044929_1_0" index="0" allow="pedestrian bicycle" speed="5.56" length="0.30" width="2.00" shape="985.80,508.54 986.06,508.39"/>
    </edge>
    <edge id=":11603044930_0" function="internal">
        <lane id=":11603044930_0_0" index="0" allow="pedestrian bicycle" speed="5.56" length="0.30" width="2.00" shape="993.34,506.57 993.08,506.72"/>
    </edge>
    <edge id=":11603044930_1" function="internal">
        <lane id=":11603044930_1_0" index="0" allow="pedestrian bicycle" speed="5.56" length="0.30" width="2.00" shape="992.09,504.98 992.35,504.83"/>
    </edge>
    <edge id=":11603044931_0" function="internal">
        <lane id=":11603044931_0_0" index="0" allow="pedestrian bicycle" speed="5.56" length="0.10" width="2.00" shape="990.23,508.33 990.23,508.33"/>
    </edge>
    <edge id=":11603044931_1" function="internal">
        <lane id=":11603044931_1_0" index="0" allow="pedestrian bicycle" speed="5.56" length="0.10" width="2.00" shape="989.25,506.59 989.25,506.59"/>
    </edge>
    <edge id=":11603044932_0" function="internal">
        <lane id=":11603044932_0_0" index="0" allow="pedestrian bicycle" speed="5.56" length="0.30" width="2.00" shape="996.44,504.82 996.18,504.97"/>
    </edge>
    <edge id=":11603044932_1" function="internal">
        <lane id=":11603044932_1_0" index="0" allow="pedestrian bicycle" speed="5.56" length="0.30" width="2.00" shape="995.20,503.23 995.46,503.08"/>
    </edge>
    <edge id=":11603044933_0" function="internal">
        <lane id=":11603044933_0_0" index="0" allow="pedestrian bicycle" speed="5.56" length="0.30" width="2.00" shape="999.79,502.92 999.53,503.07"/>
    </edge>
    <edge id=":11603044933_1" function="internal">
        <lane id=":11603044933_1_0" index="0" allow="pedestrian bicycle" speed="5.56" length="0.27" width="2.00" shape="998.54,501.33 998.77,501.20"/>
    </edge>
    <edge id=":11603044934_0" function="internal">
        <lane id=":11603044934_0_0" index="0" allow="pedestrian bicycle" speed="5.56" length="0.27" width="2.00" shape="1000.40,502.57 1000.17,502.70"/>
    </edge>
    <edge id=":11603044934_1" function="internal">
        <lane id=":11603044934_1_0" index="0" allow="pedestrian bicycle" speed="5.56" length="0.30" width="2.00" shape="999.15,500.98 999.41,500.83"/>
    </edge>
    <edge id=":11603044935_0" function="internal">
        <lane id=":11603044935_0_0" index="0" allow="pedestrian bicycle" speed="5.56" length="0.10" width="2.00" shape="1003.37,500.89 1003.37,500.89"/>
    </edge>
    <edge id=":11603044935_1" function="internal">
        <lane id=":11603044935_1_0" index="0" allow="pedestrian bicycle" speed="5.56" length="0.10" width="2.00" shape="1002.38,499.14 1002.38,499.14"/>
    </edge>
    <edge id=":11603044936_0" function="internal">
        <lane id=":11603044936_0_0" index="0" allow="pedestrian bicycle" speed="5.56" length="0.30" width="2.00" shape="1008.11,498.20 1007.85,498.35"/>
    </edge>
    <edge id=":11603044936_1" function="internal">
        <lane id=":11603044936_1_0" index="0" allow="pedestrian bicycle" speed="5.56" length="0.30" width="2.00" shape="1006.87,496.61 1007.13,496.46"/>
    </edge>
    <edge id=":1166364308_0" function="internal">
        <lane id=":1166364308_0_0" index="0" disallow="tram rail_urban rail rail_electric rail_fast ship container cable_car subway aircraft wheelchair scooter drone" speed="6.90" length="10.35" shape="763.44,470.04 761.76,468.20 759.69,467.44 757.23,467.75 754.37,469.15"/>
    </edge>
    <edge id=":1166364308_1" function="internal">
        <lane id=":1166364308_1_0" index="0" disallow="tram rail_urban rail rail_electric rail_fast ship container cable_car subway aircraft wheelchair scooter drone" speed="13.89" length="14.57" shape="763.44,470.04 761.28,467.07 758.91,464.35 756.52,461.64 754.33,458.69"/>
    </edge>
    <edge id=":1166364308_2" function="internal">
        <lane id=":1166364308_2_0" index="0" disallow="tram rail_urban rail rail_electric rail_fast ship container cable_car subway aircraft wheelchair scooter drone" speed="7.81" length="13.08" shape="763.44,470.04 761.77,466.52 761.43,463.42 762.42,460.76 764.74,458.52"/>
    </edge>
    <edge id=":1166364308_3" function="internal">
        <lane id=":1166364308_3_0" index="0" disallow="tram rail_urban rail rail_electric rail_fast ship container cable_car subway aircraft wheelchair scooter drone" speed="22.22" length="14.54" shape="766.53,461.17 754.37,469.15"/>
    </edge>
    <edge id=":1166364308_4" function="internal">
        <lane id=":1166364308_4_0" index="0" disallow="tram rail_urban rail rail_electric rail_fast ship container cable_car subway aircraft wheelchair scooter drone" speed="7.97" length="4.19" shape="766.53,461.17 763.01,462.89 762.73,462.90"/>
    </edge>
    <edge id=":1166364308_5" function="internal">
        <lane id=":1166364308_5_0" index="0" disallow="tram rail_urban rail rail_electric rail_fast ship container cable_car subway aircraft wheelchair scooter drone" speed="3.65" length="1.44" shape="766.53,461.17 765.09,461.18"/>
    </edge>
    <edge id=":1166364308_12" function="internal">