<?xml version="1.0" encoding="UTF-8"?>

<additional>
<tlLogic id="1559451853" type="static" programID="tls" offset="0">
        <phase duration="42" state="GGGrrr"/>
        <phase duration="3"  state="yyyrrr"/>
        <phase duration="42" state="rrrGGG"/>
        <phase duration="3"  state="rrryyy"/>
    </tlLogic>
    <tlLogic id="1559476783" type="static" programID="tls" offset="0">
        <phase duration="42" state="GGGgrrrGGg"/>
        <phase duration="3"  state="yyyyrrryyy"/>
        <phase duration="42" state="rrrrGGGrrr"/>
        <phase duration="3"  state="rrrryyyrrr"/>
    </tlLogic>
    <tlLogic id="2721256048" type="static" programID="tls" offset="0">
        <phase duration="42" state="GGrr"/>
        <phase duration="3"  state="yyrr"/>
        <phase duration="42" state="rrGG"/>
        <phase duration="3"  state="rryy"/>
    </tlLogic>
    <tlLogic id="296637207" type="static" programID="tls" offset="0">
        <phase duration="42" state="GGGr"/>
        <phase duration="3"  state="yyyr"/>
        <phase duration="42" state="rrrG"/>
        <phase duration="3"  state="rrry"/>
    </tlLogic>
    <tlLogic id="296637218" type="static" programID="tls" offset="0">
        <phase duration="42" state="GGrr"/>
        <phase duration="3"  state="yyrr"/>
        <phase duration="42" state="rrGG"/>
        <phase duration="3"  state="rryy"/>
    </tlLogic>
    <tlLogic id="296637225" type="static" programID="tls" offset="0">
        <phase duration="42" state="GGrr"/>
        <phase duration="3"  state="yyrr"/>
        <phase duration="42" state="rrGG"/>
        <phase duration="3"  state="rryy"/>
    </tlLogic>
    <tlLogic id="296637233" type="static" programID="tls" offset="0">
        <phase duration="42" state="GGrr"/>
        <phase duration="3"  state="yyrr"/>
        <phase duration="42" state="rrGG"/>
        <phase duration="3"  state="rryy"/>
    </tlLogic>
    <tlLogic id="296637281" type="static" programID="tls" offset="0">
        <phase duration="39" state="GGrr"/>
        <phase duration="6"  state="yyrr"/>
        <phase duration="39" state="rrGG"/>
        <phase duration="6"  state="rryy"/>
    </tlLogic>
    <tlLogic id="296637288" type="static" programID="tls" offset="0">
        <phase duration="39" state="GGrr"/>
        <phase duration="6"  state="yyrr"/>
        <phase duration="39" state="rrGG"/>
        <phase duration="6"  state="rryy"/>
    </tlLogic>
    <tlLogic id="296637299" type="static" programID="tls" offset="0">
        <phase duration="39" state="Grrrr"/>
        <phase duration="6"  state="yrrrr"/>
        <phase duration="39" state="rGGGG"/>
        <phase duration="6"  state="ryyyy"/>
    </tlLogic>
    <tlLogic id="296637337" type="static" programID="tls" offset="0">
        <phase duration="82" state="GGGgGGgg"/>
        <phase duration="3"  state="yyyyyyyy"/>
        <phase duration="5"  state="rrrrrrrr"/>
    </tlLogic>
    <tlLogic id="296637359" type="static" programID="tls" offset="0">
        <phase duration="42" state="GGgGGGgrrr"/>
        <phase duration="3"  state="yyyyyyyrrr"/>
        <phase duration="42" state="rrrrrrrGGG"/>
        <phase duration="3"  state="rrrrrrryyy"/>
    </tlLogic>
    <tlLogic id="296637370" type="static" programID="tls" offset="0">
        <phase duration="82" state="G"/>
        <phase duration="3"  state="y"/>
        <phase duration="5"  state="r"/>
    </tlLogic>
    <tlLogic id="296637430" type="static" programID="tls" offset="0">
        <phase duration="42" state="GGGrrrr"/>
        <phase duration="3"  state="yyyrrrr"/>
        <phase duration="42" state="rrrGGGG"/>
        <phase duration="3"  state="rrryyyy"/>
    </tlLogic>
    <tlLogic id="296637438" type="static" programID="tls" offset="0">
        <phase duration="42" state="GGrrrr"/>
        <phase duration="3"  state="yyrrrr"/>
        <phase duration="42" state="rrGGGG"/>
        <phase duration="3"  state="rryyyy"/>
    </tlLogic>
    <tlLogic id="296637447" type="static" programID="tls" offset="0">
        <phase duration="42" state="GGrrr"/>
        <phase duration="3"  state="yyrrr"/>
        <phase duration="42" state="rrGGG"/>
        <phase duration="3"  state="rryyy"/>
    </tlLogic>
    <tlLogic id="296637521" type="static" programID="tls" offset="0">
        <phase duration="42" state="GGrr"/>
        <phase duration="3"  state="yyrr"/>
        <phase duration="42" state="rrGG"/>
        <phase duration="3"  state="rryy"/>
    </tlLogic>
    <tlLogic id="296637528" type="static" programID="tls" offset="0">
        <phase duration="42" state="GGrr"/>
        <phase duration="3"  state="yyrr"/>
        <phase duration="42" state="rrGG"/>
        <phase duration="3"  state="rryy"/>
    </tlLogic>
    <tlLogic id="296637539" type="static" programID="tls" offset="0">
        <phase duration="42" state="GGrr"/>
        <phase duration="3"  state="yyrr"/>
        <phase duration="42" state="rrGG"/>
        <phase duration="3"  state="rryy"/>
    </tlLogic>
    <tlLogic id="296637549" type="static" programID="tls" offset="0">
        <phase duration="42" state="GGGGrr"/>
        <phase duration="3"  state="yyyyrr"/>
        <phase duration="42" state="rrrrGG"/>
        <phase duration="3"  state="rrrryy"/>
    </tlLogic>
    <tlLogic id="296637610" type="static" programID="tls" offset="0">
        <phase duration="42" state="GGrr"/>
        <phase duration="3"  state="yyrr"/>
        <phase duration="42" state="rrGG"/>
        <phase duration="3"  state="rryy"/>
    </tlLogic>
    <tlLogic id="296637617" type="static" programID="tls" offset="0">
        <phase duration="42" state="GGGGrrrr"/>
        <phase duration="3"  state="yyyyrrrr"/>
        <phase duration="42" state="rrrrGGGG"/>
        <phase duration="3"  state="rrrryyyy"/>
    </tlLogic>
    <tlLogic id="296637626" type="static" programID="tls" offset="0">
        <phase duration="82" state="GG"/>
        <phase duration="3"  state="yy"/>
        <phase duration="5"  state="rr"/>
    </tlLogic>
    <tlLogic id="296637654" type="static" programID="tls" offset="0">
        <phase duration="42" state="GGrr"/>
        <phase duration="3"  state="yyrr"/>
        <phase duration="42" state="rrGG"/>
        <phase duration="3"  state="rryy"/>
    </tlLogic>
    <tlLogic id="296637664" type="static" programID="tls" offset="0">
        <phase duration="42" state="Gr"/>
        <phase duration="3"  state="yr"/>
        <phase duration="42" state="rG"/>
        <phase duration="3"  state="ry"/>
    </tlLogic>
    <tlLogic id="296637748" type="static" programID="tls" offset="0">
        <phase duration="42" state="GGrr"/>
        <phase duration="3"  state="yyrr"/>
        <phase duration="42" state="rrGG"/>
        <phase duration="3"  state="rryy"/>
    </tlLogic>
    <tlLogic id="296666518" type="static" programID="tls" offset="0">
        <phase duration="82" state="GGG"/>
        <phase duration="3"  state="yyy"/>
        <phase duration="5"  state="rrr"/>
    </tlLogic>
    <tlLogic id="296666546" type="static" programID="tls" offset="0">
        <phase duration="42" state="GGGrr"/>
        <phase duration="3"  state="yyyrr"/>
        <phase duration="42" state="rrrGG"/>
        <phase duration="3"  state="rrryy"/>
    </tlLogic>
    <tlLogic id="296666558" type="static" programID="tls" offset="0">
        <phase duration="42" state="GGrrr"/>
        <phase duration="3"  state="yyrrr"/>
        <phase duration="42" state="rrGGG"/>
        <phase duration="3"  state="rryyy"/>
    </tlLogic>
    <tlLogic id="296666580" type="static" programID="tls" offset="0">
        <phase duration="42" state="GGGrr"/>
        <phase duration="3"  state="yyyrr"/>
        <phase duration="42" state="rrrGG"/>
        <phase duration="3"  state="rrryy"/>
    </tlLogic>
    <tlLogic id="296666597" type="static" programID="tls" offset="0">
        <phase duration="42" state="GGGrr"/>
        <phase duration="3"  state="yyyrr"/>
        <phase duration="42" state="rrrGG"/>
        <phase duration="3"  state="rrryy"/>
    </tlLogic>
    <tlLogic id="296666602" type="static" programID="tls" offset="0">
        <phase duration="42" state="GGGrr"/>
        <phase duration="3"  state="yyyrr"/>
        <phase duration="42" state="rrrGG"/>
        <phase duration="3"  state="rrryy"/>
    </tlLogic>
    <tlLogic id="296666606" type="static" programID="tls" offset="0">
        <phase duration="42" state="GGGrr"/>
        <phase duration="3"  state="yyyrr"/>
        <phase duration="42" state="rrrGG"/>
        <phase duration="3"  state="rrryy"/>
    </tlLogic>
    <tlLogic id="296666611" type="static" programID="tls" offset="0">
        <phase duration="82" state="GGggGGGg"/>
        <phase duration="3"  state="yyyyyyyy"/>
        <phase duration="5"  state="rrrrrrrr"/>
    </tlLogic>
    <tlLogic id="296666683" type="static" programID="tls" offset="0">
        <phase duration="42" state="GGGrr"/>
        <phase duration="3"  state="yyyrr"/>
        <phase duration="42" state="rrrGG"/>
        <phase duration="3"  state="rrryy"/>
    </tlLogic>
    <tlLogic id="296666691" type="static" programID="tls" offset="0">
        <phase duration="42" state="GGGrr"/>
        <phase duration="3"  state="yyyrr"/>
        <phase duration="42" state="rrrGG"/>
        <phase duration="3"  state="rrryy"/>
    </tlLogic>
    <tlLogic id="296666695" type="static" programID="tls" offset="0">
        <phase duration="42" state="GGGgrrrrGGgg"/>
        <phase duration="3"  state="yyyyrrrryyyy"/>
        <phase duration="42" state="rrrrGGGGrrrr"/>
        <phase duration="3"  state="rrrryyyyrrrr"/>
    </tlLogic>
    <tlLogic id="296666708" type="static" programID="tls" offset="0">
        <phase duration="42" state="GGGgrrrGGgg"/>
        <phase duration="3"  state="yyyyrrryyyy"/>
        <phase duration="42" state="rrrrGGGrrrr"/>
        <phase duration="3"  state="rrrryyyrrrr"/>
    </tlLogic>
    <tlLogic id="296666714" type="static" programID="tls" offset="0">
        <phase duration="42" state="rrrGGggGGGg"/>
        <phase duration="3"  state="rrryyyyyyyy"/>
        <phase duration="42" state="GGGrrrrrrrr"/>
        <phase duration="3"  state="yyyrrrrrrrr"/>
    </tlLogic>
    <tlLogic id="296666718" type="static" programID="tls" offset="0">
        <phase duration="42" state="GGGgrrrGGgg"/>
        <phase duration="3"  state="yyyyrrryyyy"/>
        <phase duration="42" state="rrrrGGGrrrr"/>
        <phase duration="3"  state="rrrryyyrrrr"/>
    </tlLogic>
    <tlLogic id="296734855" type="static" programID="tls" offset="0">
        <phase duration="42" state="GGrr"/>
        <phase duration="3"  state="yyrr"/>
        <phase duration="42" state="rrGG"/>
        <phase duration="3"  state="rryy"/>
    </tlLogic>
    <tlLogic id="296734861" type="static" programID="tls" offset="0">
        <phase duration="42" state="GGrr"/>
        <phase duration="3"  state="yyrr"/>
        <phase duration="42" state="rrGG"/>
        <phase duration="3"  state="rryy"/>
    </tlLogic>
    <tlLogic id="296734867" type="static" programID="tls" offset="0">
        <phase duration="42" state="GGrr"/>
        <phase duration="3"  state="yyrr"/>
        <phase duration="42" state="rrGG"/>
        <phase duration="3"  state="rryy"/>
    </tlLogic>
    <tlLogic id="296734871" type="static" programID="tls" offset="0">
        <phase duration="42" state="GGrr"/>
        <phase duration="3"  state="yyrr"/>
        <phase duration="42" state="rrGG"/>
        <phase duration="3"  state="rryy"/>
    </tlLogic>
    <tlLogic id="296734874" type="static" programID="tls" offset="0">
        <phase duration="42" state="GGrr"/>
        <phase duration="3"  state="yyrr"/>
        <phase duration="42" state="rrGG"/>
        <phase duration="3"  state="rryy"/>
    </tlLogic>
    <tlLogic id="296734897" type="static" programID="tls" offset="0">
        <phase duration="42" state="GGrr"/>
        <phase duration="3"  state="yyrr"/>
        <phase duration="42" state="rrGG"/>
        <phase duration="3"  state="rryy"/>
    </tlLogic>
    <tlLogic id="296734906" type="static" programID="tls" offset="0">
        <phase duration="42" state="GGrr"/>
        <phase duration="3"  state="yyrr"/>
        <phase duration="42" state="rrGG"/>
        <phase duration="3"  state="rryy"/>
    </tlLogic>
    <tlLogic id="296734909" type="static" programID="tls" offset="0">
        <phase duration="42" state="GGrr"/>
        <phase duration="3"  state="yyrr"/>
        <phase duration="42" state="rrGG"/>
        <phase duration="3"  state="rryy"/>
    </tlLogic>
    <tlLogic id="296734962" type="static" programID="tls" offset="0">
        <phase duration="42" state="GGrr"/>
        <phase duration="3"  state="yyrr"/>
        <phase duration="42" state="rrGG"/>
        <phase duration="3"  state="rryy"/>
    </tlLogic>
    <tlLogic id="296734964" type="static" programID="tls" offset="0">
        <phase duration="42" state="GGrr"/>
        <phase duration="3"  state="yyrr"/>
        <phase duration="42" state="rrGG"/>
        <phase duration="3"  state="rryy"/>
    </tlLogic>
    <tlLogic id="296734968" type="static" programID="tls" offset="0">
        <phase duration="42" state="GGrr"/>
        <phase duration="3"  state="yyrr"/>
        <phase duration="42" state="rrGG"/>
        <phase duration="3"  state="rryy"/>
    </tlLogic>
    <tlLogic id="296734976" type="static" programID="tls" offset="0">
        <phase duration="42" state="GGrr"/>
        <phase duration="3"  state="yyrr"/>
        <phase duration="42" state="rrGG"/>
        <phase duration="3"  state="rryy"/>
    </tlLogic>
    <tlLogic id="296734980" type="static" programID="tls" offset="0">
        <phase duration="42" state="GGrr"/>
        <phase duration="3"  state="yyrr"/>
        <phase duration="42" state="rrGG"/>
        <phase duration="3"  state="rryy"/>
    </tlLogic>
    <tlLogic id="296734996" type="static" programID="tls" offset="0">
        <phase duration="42" state="GGrr"/>
        <phase duration="3"  state="yyrr"/>
        <phase duration="42" state="rrGG"/>
        <phase duration="3"  state="rryy"/>
    </tlLogic>
    <tlLogic id="296735001" type="static" programID="tls" offset="0">
        <phase duration="42" state="GGrr"/>
        <phase duration="3"  state="yyrr"/>
        <phase duration="42" state="rrGG"/>
        <phase duration="3"  state="rryy"/>
    </tlLogic>
    <tlLogic id="301844169" type="static" programID="tls" offset="0">
        <phase duration="82" state="G"/>
        <phase duration="3"  state="y"/>
        <phase duration="5"  state="r"/>
    </tlLogic>
    <tlLogic id="4757133189" type="static" programID="tls" offset="0">
        <phase duration="42" state="GGrrr"/>
        <phase duration="3"  state="yyrrr"/>
        <phase duration="42" state="rrGGG"/>
        <phase duration="3"  state="rryyy"/>
    </tlLogic>
    <tlLogic id="7303997531" type="static" programID="tls" offset="0">
        <phase duration="82" state="G"/>
        <phase duration="3"  state="y"/>
        <phase duration="5"  state="r"/>
    </tlLogic>
    <tlLogic id="7303997539" type="static" programID="tls" offset="0">
        <phase duration="82" state="G"/>
        <phase duration="3"  state="y"/>
        <phase duration="5"  state="r"/>
    </tlLogic>
    <tlLogic id="7304015850" type="static" programID="tls" offset="0">
        <phase duration="82" state="GGG"/>
        <phase duration="3"  state="yyy"/>
        <phase duration="5"  state="rrr"/>
    </tlLogic>
    <tlLogic id="7304015852" type="static" programID="tls" offset="0">
        <phase duration="82" state="GGG"/>
        <phase duration="3"  state="yyy"/>
        <phase duration="5"  state="rrr"/>
    </tlLogic>
    <tlLogic id="8789786542" type="static" programID="tls" offset="0">
        <phase duration="82" state="GG"/>
        <phase duration="3"  state="yy"/>
        <phase duration="5"  state="rr"/>
    </tlLogic>
    <tlLogic id="8789786564" type="static" programID="tls" offset="0">
        <phase duration="82" state="G"/>
        <phase duration="3"  state="y"/>
        <phase duration="5"  state="r"/>
    </tlLogic>
    <tlLogic id="8789786581" type="static" programID="tls" offset="0">
        <phase duration="82" state="G"/>
        <phase duration="3"  state="y"/>
        <phase duration="5"  state="r"/>
    </tlLogic>
    <tlLogic id="8887765218" type="static" programID="tls" offset="0">
        <phase duration="42" state="GGrr"/>
        <phase duration="3"  state="yyrr"/>
        <phase duration="42" state="rrGG"/>
        <phase duration="3"  state="rryy"/>
    </tlLogic>
    <tlLogic id="9111824691" type="static" programID="tls" offset="0">
        <phase duration="82" state="GGG"/>
        <phase duration="3"  state="yyy"/>
        <phase duration="5"  state="rrr"/>
    </tlLogic>
    <tlLogic id="9111824692" type="static" programID="tls" offset="0">
        <phase duration="82" state="GGG"/>
        <phase duration="3"  state="yyy"/>
        <phase duration="5"  state="rrr"/>
    </tlLogic>
    <tlLogic id="9111824695" type="static" programID="tls" offset="0">
        <phase duration="82" state="GGGG"/>
        <phase duration="3"  state="yyyy"/>
        <phase duration="5"  state="rrrr"/>
    </tlLogic>
</additional>