<?xml version="1.0" encoding="UTF-8"?>

<!-- generated on 2024-08-16 15:34:25 by Eclipse SUMO netconvert Version 1.20.0
<configuration xmlns:xsi="http://www.w3.org/2001/XMLSchema-instance" xsi:noNamespaceSchemaLocation="http://sumo.dlr.de/xsd/netconvertConfiguration.xsd">

    <input>
        <osm-files value="map2.osm"/>
    </input>

    <output>
        <output-file value="rs2.net.xml"/>
    </output>

    <projection>
        <proj.utm value="true"/>
    </projection>

</configuration>
-->

<net version="1.20" junctionCornerDetail="5" limitTurnSpeed="5.50" xmlns:xsi="http://www.w3.org/2001/XMLSchema-instance" xsi:noNamespaceSchemaLocation="http://sumo.dlr.de/xsd/net_file.xsd">

    <location netOffset="-562738.08,4286736.96" convBoundary="0.00,0.00,1988.58,2548.13" origBoundary="-62.278389,-38.727047,-62.255531,-38.704074" projParameter="+proj=utm +zone=20 +ellps=WGS84 +datum=WGS84 +units=m +no_defs"/>

    <type id="highway.footway" priority="1" numLanes="1" speed="2.78" allow="pedestrian" oneway="1" width="2.00"/>
    <type id="highway.living_street" priority="2" numLanes="1" speed="2.78" disallow="tram rail_urban rail rail_electric rail_fast ship container cable_car subway aircraft wheelchair scooter drone" oneway="0"/>
    <type id="highway.pedestrian" priority="1" numLanes="1" speed="2.78" allow="pedestrian" oneway="1" width="2.00"/>
    <type id="highway.primary" priority="12" numLanes="2" speed="27.78" disallow="tram rail_urban rail rail_electric rail_fast ship container cable_car subway aircraft wheelchair scooter drone" oneway="0"/>
    <type id="highway.primary_link" priority="7" numLanes="1" speed="22.22" disallow="tram rail_urban rail rail_electric rail_fast ship container cable_car subway aircraft wheelchair scooter drone" oneway="0"/>
    <type id="highway.residential" priority="3" numLanes="1" speed="13.89" disallow="tram rail_urban rail rail_electric rail_fast ship container cable_car subway aircraft wheelchair scooter drone" oneway="0"/>
    <type id="highway.secondary" priority="11" numLanes="1" speed="27.78" disallow="tram rail_urban rail rail_electric rail_fast ship container cable_car subway aircraft wheelchair scooter drone" oneway="0"/>
    <type id="highway.service" priority="1" numLanes="1" speed="5.56" allow="pedestrian delivery bicycle" oneway="0"/>
    <type id="highway.steps" priority="1" numLanes="1" speed="1.39" allow="pedestrian" oneway="1" width="2.00"/>
    <type id="highway.tertiary" priority="10" numLanes="1" speed="22.22" disallow="tram rail_urban rail rail_electric rail_fast ship container cable_car subway aircraft wheelchair scooter drone" oneway="0"/>
    <type id="highway.tertiary_link" priority="5" numLanes="1" speed="22.22" disallow="tram rail_urban rail rail_electric rail_fast ship container cable_car subway aircraft wheelchair scooter drone" oneway="0"/>

    <edge id=":11095323737_0" function="internal">
        <lane id=":11095323737_0_0" index="0" allow="pedestrian delivery bicycle" speed="3.65" length="4.67" shape="868.84,1271.06 870.23,1270.68 871.09,1270.90 871.44,1271.72 871.26,1273.15"/>
    </edge>
    <edge id=":11095323738_0" function="internal">
        <lane id=":11095323738_0_0" index="0" disallow="tram rail_urban rail rail_electric rail_fast ship container cable_car subway aircraft wheelchair scooter drone" speed="13.89" length="9.43" shape="836.53,1317.77 830.02,1310.95"/>
    </edge>
    <edge id=":11095323738_1" function="internal">
        <lane id=":11095323738_1_0" index="0" allow="pedestrian delivery bicycle" speed="6.35" length="7.93" shape="836.53,1317.77 834.80,1315.67 833.87,1313.81 833.74,1312.20 834.41,1310.84"/>
    </edge>
    <edge id=":11095323738_2" function="internal">
        <lane id=":11095323738_2_0" index="0" allow="pedestrian delivery bicycle" speed="5.99" length="8.03" shape="836.83,1312.94 835.53,1313.82 833.96,1313.79 832.12,1312.83 830.02,1310.95"/>
    </edge>
    <edge id=":11095323738_3" function="internal">
        <lane id=":11095323738_3_0" index="0" allow="pedestrian delivery bicycle" speed="3.65" length="4.67" shape="836.83,1312.94 835.44,1313.32 834.57,1313.10 834.23,1312.27 834.41,1310.84"/>
    </edge>
    <edge id=":11095323739_0" function="internal">
        <lane id=":11095323739_0_0" index="0" allow="pedestrian delivery bicycle" speed="3.65" length="4.67" shape="827.02,1028.52 828.44,1028.28 829.28,1028.59 829.54,1029.44 829.22,1030.85"/>
    </edge>
    <edge id=":11095323746_0" function="internal">
        <lane id=":11095323746_0_0" index="0" allow="pedestrian delivery bicycle" speed="5.22" length="5.21" shape="804.43,1086.79 803.56,1088.00 803.24,1089.17 803.47,1090.31 804.24,1091.41"/>
    </edge>
    <edge id=":11095323746_1" function="internal">
        <lane id=":11095323746_1_0" index="0" allow="pedestrian delivery bicycle" speed="3.65" length="4.67" shape="804.43,1086.79 803.03,1087.12 802.17,1086.87 801.86,1086.03 802.09,1084.61"/>
    </edge>
    <edge id=":11095323746_2" function="internal">
        <lane id=":11095323746_2_0" index="0" allow="pedestrian delivery bicycle" speed="4.99" length="5.06" shape="797.71,1084.64 798.81,1085.50 799.91,1085.78 801.00,1085.48 802.09,1084.61"/>
    </edge>
    <edge id=":11095323746_3" function="internal">
        <lane id=":11095323746_3_0" index="0" disallow="tram rail_urban rail rail_electric rail_fast ship container cable_car subway aircraft wheelchair scooter drone" speed="13.89" length="9.41" shape="797.71,1084.64 804.24,1091.41"/>
    </edge>
    <edge id=":11095323747_0" function="internal">
        <lane id=":11095323747_0_0" index="0" allow="pedestrian delivery bicycle" speed="5.00" length="5.05" shape="832.71,1343.05 831.64,1342.16 830.56,1341.85 829.45,1342.10 828.33,1342.92"/>
    </edge>
    <edge id=":11095323747_1" function="internal">
        <lane id=":11095323747_1_0" index="0" allow="pedestrian delivery bicycle" speed="5.56" length="10.28" shape="832.71,1343.05 831.12,1340.70 830.65,1338.42 831.32,1336.20 833.12,1334.06"/>
    </edge>
    <edge id=":11095323747_2" function="internal">
        <lane id=":11095323747_2_0" index="0" allow="pedestrian delivery bicycle" speed="3.65" length="4.67" shape="832.71,1343.05 832.50,1341.62 832.83,1340.79 833.69,1340.55 835.09,1340.90"/>
    </edge>
    <edge id=":11095323747_3" function="internal">
        <lane id=":11095323747_3_0" index="0" allow="pedestrian delivery bicycle" speed="5.07" length="5.09" shape="835.25,1336.45 834.37,1337.50 834.05,1338.60 834.29,1339.73 835.09,1340.90"/>
    </edge>
    <edge id=":11095323747_4" function="internal">
        <lane id=":11095323747_4_0" index="0" allow="pedestrian delivery bicycle" speed="5.56" length="9.47" shape="835.25,1336.45 828.33,1342.92"/>
    </edge>
    <edge id=":11095323747_5" function="internal">
        <lane id=":11095323747_5_0" index="0" allow="pedestrian delivery bicycle" speed="3.65" length="4.67" shape="835.25,1336.45 833.82,1336.65 832.99,1336.32 832.76,1335.45 833.12,1334.06"/>
    </edge>
    <edge id=":11095323747_6" function="internal">
        <lane id=":11095323747_6_0" index="0" allow="pedestrian delivery bicycle" speed="5.56" length="9.62" shape="826.09,1340.63 833.12,1334.06"/>
    </edge>
    <edge id=":11095323747_7" function="internal">
        <lane id=":11095323747_7_0" index="0" allow="pedestrian delivery bicycle" speed="5.56" length="10.36" shape="826.09,1340.63 828.39,1338.95 830.66,1338.43 832.89,1339.08 835.09,1340.90"/>
    </edge>
    <edge id=":11095323747_8" function="internal">
        <lane id=":11095323747_8_0" index="0" allow="pedestrian delivery bicycle" speed="3.65" length="4.67" shape="826.09,1340.63 827.51,1340.37 828.35,1340.66 828.63,1341.51 828.33,1342.92"/>
    </edge>
    <edge id=":11095323752_0" function="internal">
        <lane id=":11095323752_0_0" index="0" allow="pedestrian delivery bicycle" speed="5.56" length="3.09" shape="805.65,1386.22 804.83,1386.63 804.22,1386.82 803.59,1386.85 802.69,1386.73"/>
    </edge>
    <edge id=":11095323752_1" function="internal">
        <lane id=":11095323752_1_0" index="0" allow="pedestrian delivery bicycle" speed="4.45" length="1.04" shape="803.18,1383.57 803.48,1383.61 803.69,1383.59 803.89,1383.52 804.17,1383.38"/>
    </edge>
    <edge id=":11095323757_0" function="internal">
        <lane id=":11095323757_0_0" index="0" allow="pedestrian delivery bicycle" speed="5.15" length="5.13" shape="847.66,1329.46 846.59,1328.63 845.48,1328.34 844.32,1328.61 843.13,1329.42"/>
    </edge>
    <edge id=":11095323757_1" function="internal">
        <lane id=":11095323757_1_0" index="0" disallow="tram rail_urban rail rail_electric rail_fast ship container cable_car subway aircraft wheelchair scooter drone" speed="13.89" length="9.40" shape="847.66,1329.46 841.18,1322.65"/>
    </edge>
    <edge id=":11095323757_2" function="internal">
        <lane id=":11095323757_2_0" index="0" allow="pedestrian delivery bicycle" speed="5.01" length="5.04" shape="841.00,1327.03 841.89,1325.97 842.22,1324.89 841.98,1323.78 841.18,1322.65"/>
    </edge>
    <edge id=":11095323757_3" function="internal">
        <lane id=":11095323757_3_0" index="0" allow="pedestrian delivery bicycle" speed="3.65" length="4.67" shape="841.00,1327.03 842.43,1326.83 843.26,1327.16 843.49,1328.02 843.13,1329.42"/>
    </edge>
    <edge id=":11252604963_0" function="internal">
        <lane id=":11252604963_0_0" index="0" allow="pedestrian delivery bicycle" speed="5.56" length="0.30" shape="1127.69,661.72 1127.47,661.93"/>
    </edge>
    <edge id=":11252604963_1" function="internal">
        <lane id=":11252604963_1_0" index="0" allow="pedestrian delivery bicycle" speed="5.56" length="0.20" shape="1125.34,659.54 1125.49,659.40"/>
    </edge>
    <edge id=":11397858948_0" function="internal">
        <lane id=":11397858948_0_0" index="0" allow="pedestrian delivery bicycle" speed="5.56" length="5.14" shape="1588.59,1377.48 1588.81,1378.61 1589.35,1379.66 1590.22,1380.64 1591.42,1381.53"/>
    </edge>
    <edge id=":11397858948_1" function="internal">
        <lane id=":11397858948_1_0" index="0" allow="pedestrian delivery bicycle" speed="5.56" length="5.48" shape="1588.59,1377.48 1588.60,1379.09 1588.41,1380.19 1587.95,1381.23 1587.19,1382.66"/>
    </edge>
    <edge id=":11397858951_0" function="internal">
        <lane id=":11397858951_0_0" index="0" allow="pedestrian delivery bicycle" speed="7.53" length="6.48" shape="1575.01,1386.90 1572.92,1387.22 1571.26,1387.73 1570.02,1388.43 1569.22,1389.33"/>
    </edge>
    <edge id=":11397858951_1" function="internal">
        <lane id=":11397858951_1_0" index="0" allow="pedestrian delivery bicycle" speed="6.75" length="14.48" shape="1575.01,1386.90 1569.85,1386.92 1566.83,1385.79 1565.96,1383.51 1567.24,1380.09"/>
    </edge>
    <edge id=":11397858951_2" function="internal">
        <lane id=":11397858951_2_0" index="0" disallow="tram rail_urban rail rail_electric rail_fast ship container cable_car subway aircraft wheelchair scooter drone" speed="11.11" length="6.95" shape="1572.75,1383.34 1569.22,1389.33"/>
        <lane id=":11397858951_2_1" index="1" disallow="tram rail_urban rail rail_electric rail_fast ship container cable_car subway aircraft wheelchair scooter drone" speed="11.11" length="6.95" shape="1570.00,1381.72 1566.46,1387.71"/>
    </edge>
    <edge id=":11397858951_4" function="internal">
        <lane id=":11397858951_4_0" index="0" disallow="tram rail_urban rail rail_electric rail_fast ship container cable_car subway aircraft wheelchair scooter drone" speed="11.11" length="6.95" shape="1560.95,1384.45 1564.49,1378.46"/>
        <lane id=":11397858951_4_1" index="1" disallow="tram rail_urban rail rail_electric rail_fast ship container cable_car subway aircraft wheelchair scooter drone" speed="11.11" length="6.95" shape="1563.71,1386.08 1567.24,1380.09"/>
    </edge>
    <edge id=":11438214758_0" function="internal">
        <lane id=":11438214758_0_0" index="0" allow="pedestrian delivery bicycle" speed="5.56" length="0.10" shape="888.82,1066.04 888.82,1066.04"/>
    </edge>
    <edge id=":11438214758_1" function="internal">
        <lane id=":11438214758_1_0" index="0" allow="pedestrian delivery bicycle" speed="5.56" length="0.10" shape="891.16,1063.86 891.16,1063.86"/>
    </edge>
    <edge id=":11438214759_0" function="internal">
        <lane id=":11438214759_0_0" index="0" allow="pedestrian delivery bicycle" speed="5.56" length="0.30" shape="910.29,1089.07 910.09,1088.85"/>
    </edge>
    <edge id=":11438214759_1" function="internal">
        <lane id=":11438214759_1_0" index="0" allow="pedestrian delivery bicycle" speed="5.56" length="0.30" shape="912.43,1086.67 912.63,1086.89"/>
    </edge>
    <edge id=":11438219208_0" function="internal">
        <lane id=":11438219208_0_0" index="0" allow="pedestrian delivery bicycle" speed="5.56" length="0.30" shape="901.51,1219.04 901.30,1219.25"/>
    </edge>
    <edge id=":11438219208_1" function="internal">
        <lane id=":11438219208_1_0" index="0" allow="pedestrian delivery bicycle" speed="5.56" length="0.30" shape="899.02,1217.01 899.23,1216.79"/>
    </edge>
    <edge id=":11438219209_0" function="internal">
        <lane id=":11438219209_0_0" index="0" allow="pedestrian delivery bicycle" speed="5.56" length="0.30" shape="908.02,1212.43 907.81,1212.64"/>
    </edge>
    <edge id=":11438219209_1" function="internal">
        <lane id=":11438219209_1_0" index="0" allow="pedestrian delivery bicycle" speed="5.56" length="0.30" shape="905.53,1210.39 905.74,1210.18"/>
    </edge>
    <edge id=":11438220361_0" function="internal">
        <lane id=":11438220361_0_0" index="0" allow="pedestrian delivery bicycle" speed="5.56" length="0.10" shape="743.39,648.13 743.39,648.13"/>
    </edge>
    <edge id=":11438220361_1" function="internal">
        <lane id=":11438220361_1_0" index="0" allow="pedestrian delivery bicycle" speed="5.56" length="0.10" shape="741.15,645.84 741.15,645.84"/>
    </edge>
    <edge id=":11438220362_0" function="internal">
        <lane id=":11438220362_0_0" index="0" allow="pedestrian delivery bicycle" speed="5.56" length="0.10" shape="749.94,641.74 749.94,641.74"/>
    </edge>
    <edge id=":11438220362_1" function="internal">
        <lane id=":11438220362_1_0" index="0" allow="pedestrian delivery bicycle" speed="5.56" length="0.10" shape="747.70,639.45 747.70,639.45"/>
    </edge>
    <edge id=":11438220620_0" function="internal">
        <lane id=":11438220620_0_0" index="0" allow="pedestrian delivery bicycle" speed="5.56" length="0.10" shape="926.94,670.90 926.94,670.90"/>
    </edge>
    <edge id=":11438220620_1" function="internal">
        <lane id=":11438220620_1_0" index="0" allow="pedestrian delivery bicycle" speed="5.56" length="0.10" shape="924.70,668.61 924.70,668.61"/>
    </edge>
    <edge id=":11438224910_0" function="internal">
        <lane id=":11438224910_0_0" index="0" allow="pedestrian delivery bicycle" speed="5.56" length="0.10" shape="1307.52,884.92 1307.52,884.92"/>
    </edge>
    <edge id=":11438224910_1" function="internal">
        <lane id=":11438224910_1_0" index="0" allow="pedestrian delivery bicycle" speed="5.56" length="0.10" shape="1305.25,882.67 1305.25,882.67"/>
    </edge>
    <edge id=":11438224911_0" function="internal">
        <lane id=":11438224911_0_0" index="0" allow="pedestrian delivery bicycle" speed="5.56" length="0.10" shape="1313.01,879.36 1313.01,879.36"/>
    </edge>
    <edge id=":11438224911_1" function="internal">
        <lane id=":11438224911_1_0" index="0" allow="pedestrian delivery bicycle" speed="5.56" length="0.10" shape="1310.73,877.11 1310.73,877.11"/>
    </edge>
    <edge id=":11438232198_0" function="internal">
        <lane id=":11438232198_0_0" index="0" allow="pedestrian delivery bicycle" speed="5.56" length="0.30" shape="1192.42,804.67 1192.21,804.46"/>
    </edge>
    <edge id=":11438232198_1" function="internal">
        <lane id=":11438232198_1_0" index="0" allow="pedestrian delivery bicycle" speed="5.56" length="0.30" shape="1194.49,802.22 1194.70,802.43"/>
    </edge>
    <edge id=":11438232199_0" function="internal">
        <lane id=":11438232199_0_0" index="0" allow="pedestrian delivery bicycle" speed="5.56" length="0.10" shape="1184.24,796.34 1184.24,796.34"/>
    </edge>
    <edge id=":11438232199_1" function="internal">
        <lane id=":11438232199_1_0" index="0" allow="pedestrian delivery bicycle" speed="5.56" length="0.10" shape="1186.53,794.10 1186.53,794.10"/>
    </edge>
    <edge id=":11438322301_0" function="internal">
        <lane id=":11438322301_0_0" index="0" allow="pedestrian delivery bicycle" speed="5.56" length="0.10" shape="1269.24,849.27 1269.24,849.27"/>
    </edge>
    <edge id=":11438322301_1" function="internal">
        <lane id=":11438322301_1_0" index="0" allow="pedestrian delivery bicycle" speed="5.56" length="0.10" shape="1267.00,846.98 1267.00,846.98"/>
    </edge>
    <edge id=":11438342278_0" function="internal">
        <lane id=":11438342278_0_0" index="0" allow="pedestrian delivery bicycle" speed="5.56" length="0.10" shape="1364.66,631.61 1364.66,631.61"/>
    </edge>
    <edge id=":11438342278_1" function="internal">
        <lane id=":11438342278_1_0" index="0" allow="pedestrian delivery bicycle" speed="5.56" length="0.10" shape="1366.95,629.38 1366.95,629.38"/>
    </edge>
    <edge id=":11438342279_0" function="internal">
        <lane id=":11438342279_0_0" index="0" allow="pedestrian delivery bicycle" speed="3.65" length="4.67" shape="1345.61,611.99 1345.34,610.57 1345.64,609.72 1346.49,609.45 1347.90,609.76"/>
    </edge>
    <edge id=":11438348937_0" function="internal">
        <lane id=":11438348937_0_0" index="0" allow="pedestrian delivery bicycle" speed="5.56" length="3.06" shape="1496.79,1292.69 1496.10,1293.29 1495.59,1293.67 1495.16,1294.12 1494.76,1294.91"/>
    </edge>
    <edge id=":11438348937_1" function="internal">
        <lane id=":11438348937_1_0" index="0" allow="pedestrian delivery bicycle" speed="5.56" length="2.99" shape="1491.79,1293.73 1492.15,1292.94 1492.50,1292.44 1492.93,1292.00 1493.57,1291.38"/>
    </edge>
    <edge id=":11438349250_0" function="internal">
        <lane id=":11438349250_0_0" index="0" allow="pedestrian delivery bicycle" speed="5.56" length="0.10" shape="1241.12,968.47 1241.12,968.47"/>
    </edge>
    <edge id=":11438349251_0" function="internal">
        <lane id=":11438349251_0_0" index="0" allow="pedestrian delivery bicycle" speed="5.56" length="0.10" shape="1234.15,961.56 1234.15,961.56"/>
    </edge>
    <edge id=":11438350402_0" function="internal">
        <lane id=":11438350402_0_0" index="0" allow="pedestrian delivery bicycle" speed="5.56" length="0.10" shape="1063.35,1419.70 1063.35,1419.70"/>
    </edge>
    <edge id=":11438350402_1" function="internal">
        <lane id=":11438350402_1_0" index="0" allow="pedestrian delivery bicycle" speed="5.56" length="0.10" shape="1065.63,1417.46 1065.63,1417.46"/>
    </edge>
    <edge id=":11438350403_0" function="internal">
        <lane id=":11438350403_0_0" index="0" allow="pedestrian delivery bicycle" speed="5.56" length="0.30" shape="1068.46,1424.90 1068.25,1424.68"/>
    </edge>
    <edge id=":11438350403_1" function="internal">
        <lane id=":11438350403_1_0" index="0" allow="pedestrian delivery bicycle" speed="5.56" length="0.30" shape="1070.53,1422.44 1070.74,1422.65"/>
    </edge>
    <edge id=":11477305191_0" function="internal">
        <lane id=":11477305191_0_0" index="0" allow="pedestrian delivery bicycle" speed="3.65" length="4.67" shape="1093.66,811.88 1092.24,812.12 1091.40,811.81 1091.14,810.96 1091.46,809.55"/>
    </edge>
    <edge id=":1559451853_0" function="internal">
        <lane id=":1559451853_0_0" index="0" disallow="tram rail_urban rail rail_electric rail_fast ship container cable_car subway aircraft wheelchair scooter drone" speed="6.13" length="8.15" shape="1127.82,869.66 1129.41,870.87 1131.12,871.16 1132.95,870.54 1134.89,868.99"/>
    </edge>
    <edge id=":1559451853_1" function="internal">
        <lane id=":1559451853_1_0" index="0" disallow="tram rail_urban rail rail_electric rail_fast ship container cable_car subway aircraft wheelchair scooter drone" speed="5.56" length="16.63" shape="1127.82,869.66 1139.24,881.66"/>
        <lane id=":1559451853_1_1" index="1" disallow="tram rail_urban rail rail_electric rail_fast ship container cable_car subway aircraft wheelchair scooter drone" speed="5.56" length="16.63" shape="1125.46,871.82 1136.96,883.91"/>
    </edge>
    <edge id=":1559451853_3" function="internal">
        <lane id=":1559451853_3_0" index="0" disallow="tram rail_urban rail rail_electric rail_fast ship container cable_car subway aircraft wheelchair scooter drone" speed="8.33" length="13.07" shape="1125.65,878.23 1134.89,868.99"/>
        <lane id=":1559451853_3_1" index="1" disallow="tram rail_urban rail rail_electric rail_fast ship container cable_car subway aircraft wheelchair scooter drone" speed="8.33" length="13.07" shape="1127.91,880.49 1137.16,871.25"/>
        <lane id=":1559451853_3_2" index="2" disallow="tram rail_urban rail rail_electric rail_fast ship container cable_car subway aircraft wheelchair scooter drone" speed="8.33" length="13.07" shape="1130.17,882.76 1139.42,873.52"/>
    </edge>
    <edge id=":1559476774_0" function="internal">
        <lane id=":1559476774_0_0" index="0" disallow="tram rail_urban rail rail_electric rail_fast ship container cable_car subway aircraft wheelchair scooter drone" speed="6.49" length="9.03" shape="590.83,1058.57 588.89,1057.03 586.93,1056.48 584.94,1056.93 582.93,1058.38"/>
    </edge>
    <edge id=":1559476774_1" function="internal">
        <lane id=":1559476774_1_0" index="0" disallow="tram rail_urban rail rail_electric rail_fast ship container cable_car subway aircraft wheelchair scooter drone" speed="27.78" length="11.18" shape="590.93,1050.58 582.93,1058.38"/>
    </edge>
    <edge id=":1559476780_0" function="internal">
        <lane id=":1559476780_0_0" index="0" disallow="tram rail_urban rail rail_electric rail_fast ship container cable_car subway aircraft wheelchair scooter drone" speed="6.49" length="9.03" shape="683.73,958.98 682.21,960.93 681.67,962.90 682.13,964.89 683.59,966.89"/>
    </edge>
    <edge id=":1559476780_1" function="internal">
        <lane id=":1559476780_1_0" index="0" disallow="tram rail_urban rail rail_electric rail_fast ship container cable_car subway aircraft wheelchair scooter drone" speed="27.78" length="11.23" shape="683.73,958.98 675.69,966.81"/>
    </edge>
    <edge id=":1559476781_0" function="internal">
        <lane id=":1559476781_0_0" index="0" disallow="tram rail_urban rail rail_electric rail_fast ship container cable_car subway aircraft wheelchair scooter drone" speed="6.56" length="8.98" shape="779.08,875.47 777.10,874.00 775.11,873.49 773.13,873.94 771.15,875.35"/>
    </edge>
    <edge id=":1559476781_1" function="internal">
        <lane id=":1559476781_1_0" index="0" disallow="tram rail_urban rail rail_electric rail_fast ship container cable_car subway aircraft wheelchair scooter drone" speed="13.89" length="11.04" shape="779.08,875.47 771.33,867.61"/>
    </edge>
    <edge id=":1559476781_2" function="internal">
        <lane id=":1559476781_2_0" index="0" disallow="tram rail_urban rail rail_electric rail_fast ship container cable_car subway aircraft wheelchair scooter drone" speed="27.78" length="11.04" shape="779.23,867.82 771.15,875.35"/>
    </edge>
    <edge id=":1559476781_3" function="internal">
        <lane id=":1559476781_3_0" index="0" disallow="tram rail_urban rail rail_electric rail_fast ship container cable_car subway aircraft wheelchair scooter drone" speed="6.54" length="8.96" shape="779.23,867.82 777.19,869.22 775.20,869.64 773.24,869.11 771.33,867.61"/>
    </edge>
    <edge id=":1559476783_0" function="internal">
        <lane id=":1559476783_0_0" index="0" disallow="tram rail_urban rail rail_electric rail_fast ship container cable_car subway aircraft wheelchair scooter drone" speed="7.60" length="12.23" shape="870.08,797.62 866.99,795.04 864.18,793.75 861.65,793.73 859.40,795.01"/>
    </edge>
    <edge id=":1559476783_1" function="internal">
        <lane id=":1559476783_1_0" index="0" disallow="tram rail_urban rail rail_electric rail_fast ship container cable_car subway aircraft wheelchair scooter drone" speed="8.33" length="17.55" shape="870.08,797.62 857.62,785.27"/>
        <lane id=":1559476783_1_1" index="1" disallow="tram rail_urban rail rail_electric rail_fast ship container cable_car subway aircraft wheelchair scooter drone" speed="8.33" length="17.55" shape="872.34,795.35 859.87,783.00"/>
    </edge>
    <edge id=":1559476783_3" function="internal">
        <lane id=":1559476783_3_0" index="0" disallow="tram rail_urban rail rail_electric rail_fast ship container cable_car subway aircraft wheelchair scooter drone" speed="3.65" length="1.44" shape="872.34,795.35 872.05,793.94"/>
    </edge>
    <edge id=":1559476783_10" function="internal">
        <lane id=":1559476783_10_0" index="0" disallow="tram rail_urban rail rail_electric rail_fast ship container cable_car subway aircraft wheelchair scooter drone" speed="3.65" length="3.23" shape="872.05,793.94 872.33,793.09 873.18,792.81 874.60,793.09"/>
    </edge>
    <edge id=":1559476783_4" function="internal">
        <lane id=":1559476783_4_0" index="0" disallow="tram rail_urban rail rail_electric rail_fast ship container cable_car subway aircraft wheelchair scooter drone" speed="6.48" length="9.03" shape="876.89,782.92 875.38,784.89 874.87,786.86 875.36,788.84 876.86,790.82"/>
    </edge>
    <edge id=":1559476783_5" function="internal">
        <lane id=":1559476783_5_0" index="0" disallow="tram rail_urban rail rail_electric rail_fast ship container cable_car subway aircraft wheelchair scooter drone" speed="18.06" length="20.96" shape="874.66,780.64 859.40,795.01"/>
    </edge>
    <edge id=":1559476783_6" function="internal">
        <lane id=":1559476783_6_0" index="0" disallow="tram rail_urban rail rail_electric rail_fast ship container cable_car subway aircraft wheelchair scooter drone" speed="8.18" length="14.65" shape="872.42,778.35 868.38,781.81 864.95,783.75 862.11,784.14 859.87,783.00"/>
    </edge>
    <edge id=":1559476783_7" function="internal">
        <lane id=":1559476783_7_0" index="0" disallow="tram rail_urban rail rail_electric rail_fast ship container cable_car subway aircraft wheelchair scooter drone" speed="8.33" length="17.58" shape="864.36,778.44 876.86,790.82"/>
        <lane id=":1559476783_7_1" index="1" disallow="tram rail_urban rail rail_electric rail_fast ship container cable_car subway aircraft wheelchair scooter drone" speed="8.33" length="17.58" shape="862.11,780.72 874.60,793.09"/>
    </edge>
    <edge id=":1559476783_9" function="internal">
        <lane id=":1559476783_9_0" index="0" disallow="tram rail_urban rail rail_electric rail_fast ship container cable_car subway aircraft wheelchair scooter drone" speed="3.65" length="1.44" shape="862.11,780.72 862.41,782.13"/>
    </edge>
    <edge id=":1559476783_11" function="internal">
        <lane id=":1559476783_11_0" index="0" disallow="tram rail_urban rail rail_electric rail_fast ship container cable_car subway aircraft wheelchair scooter drone" speed="3.65" length="3.23" shape="862.41,782.13 862.13,782.98 861.28,783.27 859.87,783.00"/>
    </edge>
    <edge id=":2709777460_0" function="internal">
        <lane id=":2709777460_0_0" index="0" allow="pedestrian delivery bicycle" speed="3.65" length="4.67" shape="1365.72,819.99 1364.31,820.29 1363.46,820.02 1363.16,819.17 1363.43,817.75"/>
    </edge>
    <edge id=":2709777492_0" function="internal">
        <lane id=":2709777492_0_0" index="0" allow="pedestrian delivery bicycle" speed="3.65" length="4.67" shape="1352.49,796.73 1351.08,797.02 1350.22,796.75 1349.93,795.90 1350.20,794.49"/>
    </edge>
    <edge id=":2709777543_0" function="internal">
        <lane id=":2709777543_0_0" index="0" disallow="tram rail_urban rail rail_electric rail_fast ship container cable_car subway aircraft wheelchair scooter drone" speed="11.11" length="9.40" shape="1403.51,772.29 1410.16,778.93"/>
    </edge>
    <edge id=":2709777543_1" function="internal">
        <lane id=":2709777543_1_0" index="0" allow="pedestrian delivery bicycle" speed="6.11" length="7.77" shape="1403.51,772.29 1405.32,774.37 1406.30,776.17 1406.45,777.70 1405.78,778.96"/>
    </edge>
    <edge id=":2709777543_2" function="internal">
        <lane id=":2709777543_2_0" index="0" allow="pedestrian delivery bicycle" speed="6.07" length="7.79" shape="1403.49,776.72 1404.73,776.01 1406.26,776.14 1408.07,777.12 1410.16,778.93"/>
    </edge>
    <edge id=":2709777543_3" function="internal">
        <lane id=":2709777543_3_0" index="0" allow="pedestrian delivery bicycle" speed="3.65" length="4.67" shape="1403.49,776.72 1404.90,776.42 1405.75,776.69 1406.05,777.54 1405.78,778.96"/>
    </edge>
    <edge id=":2709777561_0" function="internal">
        <lane id=":2709777561_0_0" index="0" disallow="tram rail_urban rail rail_electric rail_fast ship container cable_car subway aircraft wheelchair scooter drone" speed="11.11" length="9.40" shape="1385.39,754.20 1392.05,760.84"/>
    </edge>
    <edge id=":2709777561_1" function="internal">
        <lane id=":2709777561_1_0" index="0" allow="pedestrian delivery bicycle" speed="6.10" length="7.77" shape="1385.39,754.20 1387.20,756.28 1388.18,758.08 1388.34,759.61 1387.66,760.86"/>
    </edge>
    <edge id=":2709777561_2" function="internal">