<?xml version="1.0" encoding="UTF-8"?>

<!-- generated on 2024-07-10 12:16:31 by Eclipse SUMO netedit Version 1.20.0
<configuration xmlns:xsi="http://www.w3.org/2001/XMLSchema-instance" xsi:noNamespaceSchemaLocation="http://sumo.dlr.de/xsd/neteditConfiguration.xsd">

    <input>
        <sumo-net-file value="C:\traffic\simple_net2.net.xml"/>
    </input>

    <output>
        <output-file value="C:\traffic\simple_net2.net.xml"/>
    </output>

    <processing>
        <offset.disable-normalization value="true"/>
    </processing>

    <junctions>
        <no-turnarounds value="true"/>
    </junctions>

    <netedit>
        <new-network value="false"/>
    </netedit>

</configuration>
-->

<net version="1.20" junctionCornerDetail="5" limitTurnSpeed="5.50" xmlns:xsi="http://www.w3.org/2001/XMLSchema-instance" xsi:noNamespaceSchemaLocation="http://sumo.dlr.de/xsd/net_file.xsd">

    <location netOffset="0.00,0.00" convBoundary="-100.00,0.00,300.00,100.00" origBoundary="10000000000.00,10000000000.00,-10000000000.00,-10000000000.00" projParameter="!"/>

    <edge id=":2_0" function="internal">
        <lane id=":2_0_0" index="0" speed="13.89" length="9.22" shape="-4.00,-1.60 -1.36,-2.60 -0.05,-4.80 1.29,-7.00 4.00,-8.00"/>
        <lane id=":2_0_1" index="1" speed="13.89" length="9.22" shape="-4.00,-1.60 -1.54,-2.10 -0.00,-3.20 1.54,-4.30 4.00,-4.80"/>
        <lane id=":2_0_2" index="2" speed="13.89" length="9.22" shape="-4.00,-1.60 4.00,-1.60"/>
    </edge>
    <edge id=":3_0" function="internal">
        <lane id=":3_0_0" index="0" speed="13.89" length="9.61" shape="98.50,-8.00 100.72,-7.00 101.60,-4.80 102.48,-2.60 104.70,-1.60"/>
    </edge>
    <edge id=":3_1" function="internal">
        <lane id=":3_1_0" index="0" speed="7.88" length="13.71" shape="98.50,-1.60 99.86,-0.81 100.82,1.57 101.41,5.54 101.60,11.10"/>
    </edge>
    <edge id=":4_0" function="internal">
        <lane id=":4_0_0" index="0" speed="13.89" length="0.10" shape="200.00,-1.60 200.00,-1.60"/>
    </edge>
    <edge id=":5_0" function="internal">
        <lane id=":5_0_0" index="0" speed="13.89" length="0.10" shape="200.00,98.40 200.00,98.40"/>
    </edge>
    <edge id=":6_0" function="internal">
        <lane id=":6_0_0" index="0" speed="6.51" length="9.03" shape="101.60,92.80 101.95,95.25 103.00,97.00 104.75,98.05 107.20,98.40"/>
    </edge>
    <edge id=":6_1" function="internal">
        <lane id=":6_1_0" index="0" speed="13.89" length="11.20" shape="96.00,98.40 107.20,98.40"/>
    </edge>

    <edge id="-E0" from="3" to="2" priority="-1">
        <lane id="-E0_0" index="0" speed="13.89" length="94.50" shape="98.50,8.00 4.00,8.00"/>
        <lane id="-E0_1" index="1" speed="13.89" length="94.50" shape="98.50,4.80 4.00,4.80"/>
        <lane id="-E0_2" index="2" speed="13.89" length="94.50" shape="98.50,1.60 4.00,1.60"/>
    </edge>
    <edge id="E0" from="2" to="3" priority="-1">
        <lane id="E0_0" index="0" speed="13.89" length="94.50" shape="4.00,-8.00 98.50,-8.00"/>
        <lane id="E0_1" index="1" speed="13.89" length="94.50" shape="4.00,-4.80 98.50,-4.80"/>
        <lane id="E0_2" index="2" speed="13.89" length="94.50" shape="4.00,-1.60 98.50,-1.60"/>
    </edge>
    <edge id="E1" from="3" to="6" priority="-1">
        <lane id="E1_0" index="0" speed="13.89" length="81.70" shape="101.60,11.10 101.60,92.80"/>
    </edge>
    <edge id="E2" from="1" to="91" priority="-1">
        <lane id="E2_0" index="0" speed="13.89" length="98.50" shape="-1.50,101.60 -100.00,101.60"/>
    </edge>
    <edge id="E5" from="5" to="94" priority="-1">
        <lane id="E5_0" index="0" speed="13.89" length="100.00" shape="200.00,98.40 300.00,98.40"/>
    </edge>
    <edge id="E6" from="3" to="4" priority="-1">
        <lane id="E6_0" index="0" speed="13.89" length="95.30" shape="104.70,-1.60 200.00,-1.60"/>
    </edge>
    <edge id="E7" from="4" to="93" priority="-1">
        <lane id="E7_0" index="0" speed="13.89" length="100.00" shape="200.00,-1.60 300.00,-1.60"/>
    </edge>
    <edge id="E8" from="92" to="2" priority="-1">
        <lane id="E8_0" index="0" speed="13.89" length="96.00" shape="-100.00,-1.60 -4.00,-1.60"/>
    </edge>
    <edge id="L1" from="1" to="6" priority="-1">
        <lane id="L1_0" index="0" speed="13.89" length="94.50" shape="1.50,98.40 96.00,98.40"/>
    </edge>
    <edge id="L10" from="6" to="5" priority="-1">
        <lane id="L10_0" index="0" speed="13.89" length="92.80" shape="107.20,98.40 200.00,98.40"/>
    </edge>

    <junction id="1" type="dead_end" x="0.00" y="100.00" incLanes="" intLanes="" shape="1.50,100.00 1.50,96.80 -1.50,100.00 -1.50,103.20"/>
    <junction id="2" type="priority" x="0.00" y="0.00" incLanes="-E0_0 -E0_1 -E0_2 E8_0" intLanes=":2_0_0 :2_0_1 :2_0_2" shape="4.00,9.60 4.00,-9.60 1.98,-9.13 0.79,-7.94 -0.79,-4.86 -1.98,-3.67 -4.00,-3.20 -4.00,0.00 -1.67,0.71 -0.54,2.49 0.54,7.11 1.67,8.89">
        <request index="0" response="000" foes="000" cont="0"/>
        <request index="1" response="000" foes="000" cont="0"/>
        <request index="2" response="000" foes="000" cont="0"/>
    </junction>
    <junction id="3" type="priority" x="100.00" y="0.00" incLanes="E0_0 E0_1 E0_2" intLanes=":3_0_0 :3_1_0" shape="100.00,11.10 103.20,11.10 103.24,7.71 103.37,4.93 103.57,2.78 103.87,1.23 104.24,0.31 104.70,0.00 104.70,-3.20 102.10,-4.86 101.10,-7.94 100.20,-9.13 98.50,-9.60 98.50,9.60 99.33,9.77 99.62,9.97 99.83,10.27 99.96,10.64">
        <request index="0" response="00" foes="00" cont="0"/>
        <request index="1" response="00" foes="00" cont="0"/>
    </junction>
    <junction id="4" type="priority" x="200.00" y="0.00" incLanes="E6_0" intLanes=":4_0_0" shape="200.00,0.00 200.00,-3.20 200.00,0.00">
        <request index="0" response="0" foes="0" cont="0"/>
    </junction>
    <junction id="5" type="priority" x="200.00" y="100.00" incLanes="L10_0" intLanes=":5_0_0" shape="200.00,100.00 200.00,96.80 200.00,100.00">
        <request index="0" response="0" foes="0" cont="0"/>
    </junction>
    <junction id="6" type="priority" x="100.00" y="100.00" incLanes="E1_0 L1_0" intLanes=":6_0_0 :6_1_0" shape="107.20,100.00 107.20,96.80 104.98,96.36 104.20,95.80 103.64,95.02 103.31,94.02 103.20,92.80 100.00,92.80 99.56,95.02 99.00,95.80 98.22,96.36 97.22,96.69 96.00,96.80 96.00,100.00">
        <request index="0" response="00" foes="10" cont="0"/>
        <request index="1" response="01" foes="01" cont="0"/>
    </junction>
    <junction id="91" type="dead_end" x="-100.00" y="100.00" incLanes="E2_0" intLanes="" shape="-100.00,103.20 -100.00,100.00"/>
    <junction id="92" type="dead_end" x="-100.00" y="0.00" incLanes="" intLanes="" shape="-100.00,0.00 -100.00,-3.20"/>
    <junction id="93" type="dead_end" x="300.00" y="0.00" incLanes="E7_0" intLanes="" shape="300.00,-3.20 300.00,0.00"/>
    <junction id="94" type="dead_end" x="300.00" y="100.00" incLanes="E5_0" intLanes="" shape="300.00,96.80 300.00,100.00"/>

    <connection from="E0" to="E6" fromLane="0" toLane="0" via=":3_0_0" dir="s" state="M"/>
    <connection from="E0" to="E1" fromLane="2" toLane="0" via=":3_1_0" dir="l" state="M"/>
    <connection from="E1" to="L10" fromLane="0" toLane="0" via=":6_0_0" dir="r" state="M"/>
    <connection from="E6" to="E7" fromLane="0" toLane="0" via=":4_0_0" dir="s" state="M"/>
    <connection from="E8" to="E0" fromLane="0" toLane="0" via=":2_0_0" dir="s" state="M"/>
    <connection from="E8" to="E0" fromLane="0" toLane="1" via=":2_0_1" dir="s" state="M"/>
    <connection from="E8" to="E0" fromLane="0" toLane="2" via=":2_0_2" dir="s" state="M"/>
    <connection from="L1" to="L10" fromLane="0" toLane="0" via=":6_1_0" dir="s" state="m"/>
    <connection from="L10" to="E5" fromLane="0" toLane="0" via=":5_0_0" dir="s" state="M"/>

    <connection from=":2_0" to="E0" fromLane="0" toLane="0" dir="s" state="M"/>
    <connection from=":2_0" to="E0" fromLane="1" toLane="1" dir="s" state="M"/>
    <connection from=":2_0" to="E0" fromLane="2" toLane="2" dir="s" state="M"/>
    <connection from=":3_0" to="E6" fromLane="0" toLane="0" dir="s" state="M"/>
    <connection from=":3_1" to="E1" fromLane="0" toLane="0" dir="l" state="M"/>
    <connection from=":4_0" to="E7" fromLane="0" toLane="0" dir="s" state="M"/>
    <connection from=":5_0" to="E5" fromLane="0" toLane="0" dir="s" state="M"/>
    <connection from=":6_0" to="L10" fromLane="0" toLane="0" dir="r" state="M"/>
    <connection from=":6_1" to="L10" fromLane="0" toLane="0" dir="s" state="M"/>

</net>
