<routes>
    <vType id="car" accel="1.0" decel="5.0" sigma="0.5" length="5.0" maxSpeed="13.89"/>
    <route id="route0" edges="1to2"/>
    <vehicle id="veh0" type="car" route="route0" depart="0"/>
</routes>
