<?xml version="1.0" encoding="UTF-8"?>

<additional>
    <tlLogic id="3" type="static" programID="tls" offset="0">
        <phase duration="40" state="rrrGGGGGGGGGggg"/>
        <phase duration="3"  state="rrryyyyyyGGGggg"/>
        <phase duration="40" state="rrrrrrrrrGGGGGG"/>
        <phase duration="3"  state="rrrrrrrrryyyyyy"/>
        <phase duration="40" state="GGGGGGrrrrrrrrr"/>
        <phase duration="3"  state="yyyGGGrrrrrrrrr"/>
    </tlLogic>
    <tlLogic id="6" type="static" programID="tls" offset="0">
        <phase duration="40" state="GGGggrrrGGGG"/>
        <phase duration="3"  state="GGGggrrryyyy"/>
        <phase duration="6"  state="GGGGGrrrrrrr"/>
        <phase duration="3"  state="yyyyyrrrrrrr"/>
        <phase duration="37" state="rrrrrGGGGrrr"/>
        <phase duration="3"  state="rrrrryyyGrrr"/>
    </tlLogic>
</additional>
