<configuration>
    <input>
        <net-file value="source\hamasing.net.xml" />
        <route-files value="source\hamasing.rou.xml" />
        <additional-files value="optimal100.add.xml" />
    </input>


    <output>
        <tripinfo-output value="optimal.tripinfo.xml" />
        <fcd-output value="optimal.fcd.xml" />
    </output>


    <time>
        <begin value="0" />
        <end value="500" />
    </time>
</configuration>