<additional>
    <tlLogic id="11598582422" type="static" programID="tls" offset="0">
        <phase duration="9" state="G" />
        <phase duration="5" state="y" />
        <phase duration="9" state="r" />
    </tlLogic>
    <tlLogic id="1166364308" type="static" programID="tls" offset="0">
        <phase duration="9" state="rrrGggrrrGGg" />
        <phase duration="5" state="rrryyyrrryyy" />
        <phase duration="19" state="GGGrrrrrrrrr" />
        <phase duration="5" state="yyyrrrrrrrrr" />
        <phase duration="19" state="rrrrrrGGgGrr" />
        <phase duration="5" state="rrrrrryyyGrr" />
    </tlLogic>
    <tlLogic id="276322911" type="static" programID="tls" offset="0">
        <phase duration="9" state="rrrrGGggrrrrGGgg" />
        <phase duration="5" state="rrrryyyyrrrryyyy" />
        <phase duration="9" state="GGggrrrrGGggrrrr" />
        <phase duration="5" state="yyyyrrrryyyyrrrr" />
    </tlLogic>
    <tlLogic id="276322947" type="static" programID="tls" offset="0">
        <phase duration="19" state="GG" />
        <phase duration="5" state="yy" />
        <phase duration="9" state="rr" />
    </tlLogic>
    <tlLogic id="3071608346" type="static" programID="tls" offset="0">
        <phase duration="9" state="GggrrrGGg" />
        <phase duration="5" state="yyyrrrGyy" />
        <phase duration="9" state="rrrGGgGrr" />
        <phase duration="5" state="rrryyyGrr" />
    </tlLogic>
    <tlLogic id="3153668816" type="static" programID="tls" offset="0">
        <phase duration="9" state="rrrrGGggrrrrGGgg" />
        <phase duration="5" state="rrrryyyyrrrryyyy" />
        <phase duration="9" state="GGggrrrrGGggrrrr" />
        <phase duration="5" state="yyyyrrrryyyyrrrr" />
    </tlLogic>
    <tlLogic id="390168989" type="static" programID="tls" offset="0">
        <phase duration="19" state="GggrrrGGg" />
        <phase duration="5" state="yyyrrrGyy" />
        <phase duration="19" state="rrrGGgGrr" />
        <phase duration="5" state="rrryyyGrr" />
    </tlLogic>
    <tlLogic id="390169001" type="static" programID="tls" offset="0">
        <phase duration="9" state="GGgGggrrr" />
        <phase duration="5" state="Gyyyyyrrr" />
        <phase duration="9" state="GrrrrrGGg" />
        <phase duration="5" state="Grrrrryyy" />
    </tlLogic>
    <tlLogic id="6820538662" type="static" programID="tls" offset="0">
        <phase duration="9" state="G" />
        <phase duration="5" state="y" />
        <phase duration="9" state="r" />
    </tlLogic>
    <tlLogic id="7239313701" type="static" programID="tls" offset="0">
        <phase duration="37" state="GG" />
        <phase duration="5" state="yy" />
        <phase duration="9" state="rr" />
    </tlLogic>
    <tlLogic id="7239313702" type="static" programID="tls" offset="0">
        <phase duration="9" state="GG" />
        <phase duration="5" state="yy" />
        <phase duration="9" state="rr" />
    </tlLogic>
    <tlLogic id="7239313710" type="static" programID="tls" offset="0">
        <phase duration="9" state="GG" />
        <phase duration="5" state="yy" />
        <phase duration="9" state="rr" />
    </tlLogic>
    <tlLogic id="7239313711" type="static" programID="tls" offset="0">
        <phase duration="9" state="GG" />
        <phase duration="5" state="yy" />
        <phase duration="9" state="rr" />
    </tlLogic>
    <tlLogic id="7239313713" type="static" programID="tls" offset="0">
        <phase duration="9" state="GGGgrrr" />
        <phase duration="5" state="Gyyyrrr" />
        <phase duration="9" state="GrrrGGg" />
        <phase duration="5" state="Grrryyy" />
    </tlLogic>
    <tlLogic id="7239313715" type="static" programID="tls" offset="0">
        <phase duration="34" state="GG" />
        <phase duration="5" state="yy" />
        <phase duration="9" state="rr" />
    </tlLogic>
    <tlLogic id="7239313716" type="static" programID="tls" offset="0">
        <phase duration="9" state="GG" />
        <phase duration="5" state="yy" />
        <phase duration="9" state="rr" />
    </tlLogic>
    <tlLogic id="7239313723" type="static" programID="tls" offset="0">
        <phase duration="9" state="G" />
        <phase duration="5" state="y" />
        <phase duration="9" state="r" />
    </tlLogic>
    <tlLogic id="7239313724" type="static" programID="tls" offset="0">
        <phase duration="9" state="GG" />
        <phase duration="5" state="yy" />
        <phase duration="9" state="rr" />
    </tlLogic>
    <tlLogic id="7239313725" type="static" programID="tls" offset="0">
        <phase duration="9" state="GG" />
        <phase duration="5" state="yy" />
        <phase duration="9" state="rr" />
    </tlLogic>
    <tlLogic id="7259925909" type="static" programID="tls" offset="0">
        <phase duration="9" state="GG" />
        <phase duration="5" state="yy" />
        <phase duration="9" state="rr" />
    </tlLogic>
    <tlLogic id="7274325306" type="static" programID="tls" offset="0">
        <phase duration="9" state="GG" />
        <phase duration="5" state="yy" />
        <phase duration="19" state="rr" />
    </tlLogic>
    <tlLogic id="7274325307" type="static" programID="tls" offset="0">
        <phase duration="9" state="G" />
        <phase duration="5" state="y" />
        <phase duration="19" state="r" />
    </tlLogic>
    <tlLogic id="7274325308" type="static" programID="tls" offset="0">
        <phase duration="9" state="G" />
        <phase duration="5" state="y" />
        <phase duration="9" state="r" />
    </tlLogic>
    <tlLogic id="7274325309" type="static" programID="tls" offset="0">
        <phase duration="9" state="G" />
        <phase duration="5" state="y" />
        <phase duration="19" state="r" />
    </tlLogic>
    <tlLogic id="7274325310" type="static" programID="tls" offset="0">
        <phase duration="19" state="GG" />
        <phase duration="5" state="yy" />
        <phase duration="9" state="rr" />
    </tlLogic>
    <tlLogic id="7274325311" type="static" programID="tls" offset="0">
        <phase duration="9" state="G" />
        <phase duration="5" state="y" />
        <phase duration="9" state="r" />
    </tlLogic>
    <tlLogic id="7274325315" type="static" programID="tls" offset="0">
        <phase duration="9" state="G" />
        <phase duration="5" state="y" />
        <phase duration="9" state="r" />
    </tlLogic>
    <tlLogic id="7274325316" type="static" programID="tls" offset="0">
        <phase duration="9" state="GG" />
        <phase duration="5" state="yy" />
        <phase duration="36" state="rr" />
    </tlLogic>
    <tlLogic id="7274325317" type="static" programID="tls" offset="0">
        <phase duration="36" state="GG" />
        <phase duration="5" state="yy" />
        <phase duration="9" state="rr" />
    </tlLogic>
    <tlLogic id="7274325318" type="static" programID="tls" offset="0">
        <phase duration="19" state="G" />
        <phase duration="5" state="y" />
        <phase duration="9" state="r" />
    </tlLogic>
    <tlLogic id="7274325327" type="static" programID="tls" offset="0">
        <phase duration="19" state="GG" />
        <phase duration="5" state="yy" />
        <phase duration="19" state="rr" />
    </tlLogic>
    <tlLogic id="762012018" type="static" programID="tls" offset="0">
        <phase duration="9" state="rrrGGGrrr" />
        <phase duration="5" state="rrryyyrrr" />
        <phase duration="36" state="GGGrrrrrr" />
        <phase duration="5" state="Gyyrrrrrr" />
        <phase duration="9" state="GrrrrrGGg" />
        <phase duration="5" state="yrrrrryyy" />
    </tlLogic>
    <tlLogic id="762012028" type="static" programID="tls" offset="0">
        <phase duration="29" state="rrrGggrrrGGg" />
        <phase duration="5" state="rrryyyrrryyy" />
        <phase duration="9" state="GGGrrrrrrrrr" />
        <phase duration="5" state="yyyrrrrrrrrr" />
        <phase duration="9" state="rrrrrrGGgGrr" />
        <phase duration="5" state="rrrrrryyyGrr" />
    </tlLogic>
    <tlLogic id="800606203" type="static" programID="tls" offset="0">
        <phase duration="9" state="G" />
        <phase duration="5" state="y" />
        <phase duration="9" state="r" />
    </tlLogic>
    <tlLogic id="802143442" type="static" programID="tls" offset="0">
        <phase duration="9" state="rrrGggGGg" />
        <phase duration="5" state="rrryyyyyy" />
        <phase duration="9" state="GGGrrrrrr" />
        <phase duration="5" state="yyyrrrrrr" />
    </tlLogic>
    <tlLogic id="802143454" type="static" programID="tls" offset="0">
        <phase duration="9" state="rrrGggGGg" />
        <phase duration="5" state="rrryyyyyy" />
        <phase duration="9" state="GGGrrrrrr" />
        <phase duration="5" state="yyyrrrrrr" />
    </tlLogic>
    <tlLogic id="8494325281" type="static" programID="tls" offset="0">
        <phase duration="9" state="GG" />
        <phase duration="5" state="yy" />
        <phase duration="9" state="rr" />
    </tlLogic>
    <tlLogic id="8494325282" type="static" programID="tls" offset="0">
        <phase duration="9" state="G" />
        <phase duration="5" state="y" />
        <phase duration="9" state="r" />
    </tlLogic>
</additional>