<?xml version="1.0" encoding="UTF-8"?>

<!-- generated on 2024-08-18 21:51:58.550460 by randomTrips.py v1_20_0+0002-343658e7c64
<configuration>
    <net-file value="spain.net.xml"/>
    <route-file value="spain.rou.xml"/>
    <length value="True"/>
    <end value="50.0"/>
    <period value="0.1"/>
</configuration>
-->

<!-- generated on 2024-08-18 21:51:58 by Eclipse SUMO duarouter Version 1.20.0
<configuration xmlns:xsi="http://www.w3.org/2001/XMLSchema-instance" xsi:noNamespaceSchemaLocation="http://sumo.dlr.de/xsd/duarouterConfiguration.xsd">

    <input>
        <net-file value="spain.net.xml"/>
        <route-files value="trips.trips.xml"/>
    </input>

    <output>
        <output-file value="spain.rou.xml"/>
        <alternatives-output value="NUL"/>
    </output>

    <time>
        <begin value="0"/>
        <end value="50.0"/>
    </time>

    <report>
        <no-warnings value="true"/>
        <ignore-errors value="true"/>
        <no-step-log value="true"/>
    </report>

</configuration>
-->

<routes xmlns:xsi="http://www.w3.org/2001/XMLSchema-instance" xsi:noNamespaceSchemaLocation="http://sumo.dlr.de/xsd/routes_file.xsd">
    <vehicle id="1" depart="0.10">
        <route edges="255925785#1 -255925785#1 591569083 929226387#0 929226387#1 929226387#2 23162032#0 23162032#1"/>
    </vehicle>
    <vehicle id="3" depart="0.30">
        <route edges="636388787#1 636388787#2 636388787#3 30098185#1 30098185#2 30098185#3 30098185#4 27617860 27617819#0 27617819#1 27617819#2 27617819#3 765527988#1 765527988#2 -627718562#1"/>
    </vehicle>
    <vehicle id="5" depart="0.50">
        <route edges="190525285#0 358055191#0 358055191#1 591569083 929226387#0 929226387#1 929226387#2 23162032#0 23162032#1 925891964 654492155 27617819#0 27617819#1 27617819#2 27617819#3 765527988#1 35902564#0 35902564#1 35902564#2 35902564#3 614779081#1 35901888#0 35901888#2 35901888#3"/>
    </vehicle>
    <vehicle id="7" depart="0.70">
        <route edges="35902564#0 35902564#1 35902564#2 35902564#3 614779081#1 34474997#0 34474997#2 30098185#0 30098185#1 30098185#2 30098185#3 30098185#4 35902033#0 35902033#1"/>
    </vehicle>
    <vehicle id="8" depart="0.80">
        <route edges="190525285#0 358055191#0 358055191#1 591569083 929226387#0 929226387#1 929226387#2 23162032#0 23162032#1 925891964 654492155 27617819#0 934005397 35902033#0 35902033#1 35902125#4 35902125#5"/>
    </vehicle>
    <vehicle id="10" depart="1.00">
        <route edges="559702823#3 636388787#0 34475191#1 34475191#2 34475191#3 34475191#4 27617860 27617819#0 27617819#1 27617819#2 27617819#3 765527988#1 765527988#2 -627718562#1 -838607006 35901833#0 -255925785#1 591569083 929226387#0 929226387#1 929226387#2 23162032#0 23162032#1 925891964 654492156 835536544 559702823#0"/>
    </vehicle>
    <vehicle id="11" depart="1.10">
        <route edges="30098185#2 30098185#3 30098185#4 27617860 27617819#0 27617819#1 27617819#2 27617819#3 765527988#1 765527988#2 1280111588 146544718#1 146544718#2"/>
    </vehicle>
    <vehicle id="12" depart="1.20">
        <route edges="765527988#2 -627718562#1 -838607006 35901833#0 -255925785#1 591569083 929226387#0 929226387#1 929226387#2 23162032#0 23162032#1 925891964 654492156 835536544 559702823#0 559702823#2 559702823#3 636388787#0 636388787#1 349851320#1 34474997#7"/>
    </vehicle>
    <vehicle id="13" depart="1.30">
        <route edges="-627718562#1"/>
    </vehicle>
    <vehicle id="14" depart="1.40">
        <route edges="614779081#0 614779081#1 35901888#0 35901888#2 35901888#3 35901888#4 765527988#1 35902564#0"/>
    </vehicle>
    <vehicle id="15" depart="1.50">
        <route edges="559702823#3 559702823#4"/>
    </vehicle>
    <vehicle id="16" depart="1.60">
        <route edges="35901888#2 35901888#3 35901888#4 765527988#1 765527988#2 -627718562#1 -838607006 35901833#0 -255925785#1 255925785#1 -35901833#1 838607006"/>
    </vehicle>
    <vehicle id="17" depart="1.70">
        <route edges="34474997#4 34474997#7 34475191#0 34475191#1 34475191#2 34475191#3 34475191#4 35902033#0 35902033#1"/>
    </vehicle>
    <vehicle id="21" depart="2.10">
        <route edges="190525285#0 358055191#0 358055191#1 591569083 929226387#0 929226387#1 929226387#2 23162032#0 23162032#1 925891964 654492155 27617819#0 934005397 35902033#0 35902033#1 35902033#2 636388787#3 30098185#1"/>
    </vehicle>
    <vehicle id="22" depart="2.20">
        <route edges="-627718562#1 -838607006 35901833#0 -255925785#1 255925785#1"/>
    </vehicle>
    <vehicle id="23" depart="2.30">
        <route edges="-766243192#1 -255925785#1 591569083 929226387#0 929226387#1 929226387#2 23162032#0 23162032#1 925891964 654492155 27617819#0 27617819#1 27617819#2 27617819#3 765527988#1 35902564#0 35902564#1 35902564#2 35902564#3 614779081#1 34474997#0 34474997#2 30098185#0"/>
    </vehicle>
    <vehicle id="24" depart="2.40">
        <route edges="35902564#0 35902564#1 35902564#2 35902564#3 614779081#1 34474997#0 34474997#2 34474997#3 34474997#4 34474997#7 34475191#0 34475191#1"/>
    </vehicle>
    <vehicle id="25" depart="2.50">
        <route edges="34474997#3 34474997#4 34474997#7 34475191#0 34475191#1 34475191#2 34475191#3 34475191#4 27617860 27617819#0 27617819#1 27617819#2 27617819#3 765527988#1 765527988#2 -627718562#1 -838607006 35901833#0 -255925785#1 591569083 929226387#0 929226387#1 929226387#2 23162032#0 23162032#1"/>
    </vehicle>
    <vehicle id="26" depart="2.60">
        <route edges="23162032#1 925891964 654492155 27617819#0 27617819#1 27617819#2 27617819#3 765527988#1 765527988#2 -627718562#1 -838607006 35901833#0 766243192#0"/>
    </vehicle>
    <vehicle id="27" depart="2.70">
        <route edges="35902564#0"/>
    </vehicle>
    <vehicle id="30" depart="3.00">
        <route edges="929226387#2 23162032#0 23162032#1 925891964 654492155 27617819#0 27617819#1 27617819#2 27617819#3 765527988#1 35902564#0 35902564#1 35902564#2"/>
    </vehicle>
    <vehicle id="34" depart="3.40">
        <route edges="27617860"/>
    </vehicle>
    <vehicle id="35" depart="3.50">
        <route edges="190525285#0 358055191#0 358055191#1 255925785#1 766243192#0"/>
    </vehicle>
    <vehicle id="36" depart="3.60">
        <route edges="627718562#0 -627718562#1 -838607006 35901833#0 -255925785#1 591569083 929226387#0 929226387#1 929226387#2 23162032#0 23162032#1 925891964 654492155 27617819#0 27617819#1 27617819#2 27617819#3 765527988#1 35902564#0 35902564#1 35902564#2 35902564#3 614779081#1 34474997#0"/>
    </vehicle>
    <vehicle id="37" depart="3.70">
        <route edges="35902564#1 35902564#2 35902564#3 614779081#1 34474997#0 34474997#2 30098185#0 30098185#1 35902125#3 35902125#4 27617865 34475191#3 34475191#4"/>
    </vehicle>
    <vehicle id="38" depart="3.80">
        <route edges="636388787#4 636388787#5 35901888#2 35901888#3 35901888#4 765527988#1 765527988#2 -627718562#1 -838607006 35901833#0"/>
    </vehicle>
    <vehicle id="39" depart="3.90">
        <route edges="23162032#1 925891964 654492155 27617819#0 27617819#1 27617819#2 27617819#3 765527988#1 765527988#2 35903166#0 656659021 27131168#0 27131168#2 27131168#4"/>
    </vehicle>
    <vehicle id="40" depart="4.00">
        <route edges="35901888#4 765527988#1 765527988#2 -627718562#1 -838607006 35901833#0 -255925785#1 591569083 929226387#0 929226387#1 929226387#2 23162032#0 23162032#1 925891964 654492155 27617819#0 27617819#1 27617819#2 27617819#3"/>
    </vehicle>
    <vehicle id="41" depart="4.10">
        <route edges="35902033#1 35902125#4 27617865 34475191#3 34475191#4 27617860 27617819#0 27617819#1 27617819#2 27617819#3 765527988#1"/>
    </vehicle>
    <vehicle id="42" depart="4.20">
        <route edges="34475191#0 34475191#1 34475191#2 34475191#3 34475191#4 27617860 27617819#0 27617819#1 27617819#2 27617819#3 765527988#1 765527988#2 -627718562#1 -838607006 35901833#0 -255925785#1 591569083 929226387#0 929226387#1 929226387#2 23162032#0 23162032#1"/>
    </vehicle>
    <vehicle id="43" depart="4.30">
        <route edges="934005397 35902033#0 35902033#1 35902033#2 636388787#3 636388787#4 636388787#5 35901888#2 35901888#3"/>
    </vehicle>
    <vehicle id="45" depart="4.50">
        <route edges="-766243192#1 -255925785#1 591569083 929226387#0 929226387#1 929226387#2 23162032#0 23162032#1 925891964 654492155 27617819#0 27617819#1 27617819#2 27617819#3 765527988#1 35902564#0 35902564#1"/>
    </vehicle>
    <vehicle id="47" depart="4.70">
        <route edges="-35901833#1 838607006 627718562#0 -627718562#1 -838607006 35901833#0 -255925785#1 591569083 929226387#0 929226387#1 929226387#2 23162032#0 23162032#1 925891964 654492156 835536544 559702823#0 559702823#2 559702823#3 636388787#0 34475191#1 34475191#2 34475191#3"/>
    </vehicle>
    <vehicle id="48" depart="4.80">
        <route edges="934005397 35902033#0 35902033#1 35902033#2 636388787#3 636388787#4 636388787#5 35901888#2 35901888#3 35901888#4"/>
    </vehicle>
    <vehicle id="49" depart="4.90">
        <route edges="838607006 627718562#0 -627718562#1 -838607006 35901833#0 -255925785#1 591569083 929226387#0 929226387#1 929226387#2 23162032#0 23162032#1 925891964 654492155 27617819#0 934005397 35902033#0 35902033#1 35902033#2 636388787#3 636388787#4"/>
    </vehicle>
    <vehicle id="50" depart="5.00">
        <route edges="-146544718#0 -627718562#1 -838607006 35901833#0 -255925785#1 591569083 929226387#0 929226387#1 929226387#2 23162032#0 23162032#1 925891964 654492156 835536544 559702823#0 559702823#2 559702823#3"/>
    </vehicle>
    <vehicle id="51" depart="5.10">
        <route edges="35902651 358055176#0 654492155 27617819#0 27617819#1 27617819#2 27617819#3 765527988#1 35902564#0 35902564#1 35902564#2 35902564#3 614779081#1 35901888#0 35901888#2 35901888#3 35901888#4"/>
    </vehicle>
    <vehicle id="52" depart="5.20">
        <route edges="23162032#1 925891964 654492155 27617819#0 27617819#1 27617819#2 27617819#3 765527988#1 35902564#0 35902564#1 35902564#2 35902564#3"/>
    </vehicle>
    <vehicle id="54" depart="5.40">
        <route edges="349851320#1 34474997#7 34475191#0 34475191#1 34475191#2 34475191#3 34475191#4 27617860 27617819#0 27617819#1 27617819#2 27617819#3 765527988#1 765527988#2 -627718562#1 -838607006 35901833#0 766243192#0"/>
    </vehicle>
    <vehicle id="55" depart="5.50">
        <route edges="627718562#0 -627718562#1 -838607006 35901833#0 -255925785#1 591569083 929226387#0 929226387#1 929226387#2 23162032#0 23162032#1 925891964 654492155 27617819#0 27617819#1 27617819#2 27617819#3"/>
    </vehicle>
    <vehicle id="57" depart="5.70">
        <route edges="636388787#4 636388787#5 636388787#6"/>
    </vehicle>
    <vehicle id="58" depart="5.80">
        <route edges="27617819#0 27617819#1 27617819#2 27617819#3 765527988#1 35902564#0 35902564#1 35902564#2"/>
    </vehicle>
    <vehicle id="59" depart="5.90">
        <route edges="35902033#3 34474997#4 34474997#7 34475191#0 34475191#1 34475191#2 34475191#3 34475191#4 27617860 27617819#0 27617819#1 27617819#2 27617819#3 765527988#1 765527988#2 1280111588 146544718#1"/>
    </vehicle>
    <vehicle id="61" depart="6.10">
        <route edges="559702823#0 559702823#2 559702823#3 636388787#0 636388787#1 636388787#2 636388787#3 636388787#4 636388787#5 35901888#2 35901888#3 35901888#4"/>
    </vehicle>
    <vehicle id="62" depart="6.20">
        <route edges="-146544718#0 -627718562#1 -838607006 35901833#0 -255925785#1 591569083 929226387#0 929226387#1 929226387#2 23162032#0 23162032#1 925891964 654492155 27617819#0 27617819#1 27617819#2 27617819#3 765527988#1 35902564#0 35902564#1 35902564#2 35902564#3 614779081#1 34474997#0 34474997#2"/>
    </vehicle>
    <vehicle id="63" depart="6.30">
        <route edges="-146544718#1 -146544718#0 -627718562#1 -838607006 35901833#0 766243192#0"/>
    </vehicle>
    <vehicle id="64" depart="6.40">
        <route edges="627718562#0 -627718562#1 -838607006 35901833#0 -255925785#1 591569083 929226387#0 929226387#1 929226387#2 23162032#0 23162032#1 925891964 654492156 835536544 559702823#0 559702823#2 559702823#3 636388787#0"/>
    </vehicle>
    <vehicle id="65" depart="6.50">
        <route edges="27617819#3 765527988#1 765527988#2 -627718562#1 -838607006 35901833#0 -255925785#1 255925785#1 -35901833#1"/>
    </vehicle>
    <vehicle id="66" depart="6.60">
        <route edges="627718562#0 -627718562#1 -838607006 35901833#0 766243192#0"/>
    </vehicle>
    <vehicle id="67" depart="6.70">
        <route edges="-627718562#1 -838607006 35901833#0 -255925785#1 591569083 929226387#0 929226387#1 929226387#2 23162032#0 23162032#1 925891964 654492155 27617819#0 27617819#1 27617819#2 35901883#0 35901883#1"/>
    </vehicle>
    <vehicle id="68" depart="6.80">
        <route edges="-35901833#1 838607006 627718562#0 35903166#0 656659021 27131168#0 27131168#2 27131168#4 61279128#0 61279128#1"/>
    </vehicle>
    <vehicle id="70" depart="7.00">
        <route edges="358055191#0 358055191#1 591569083 929226387#0 929226387#1 929226387#2 23162032#0 23162032#1 925891964 654492155 27617819#0 934005397 35902033#0 35902033#1"/>
    </vehicle>
    <vehicle id="71" depart="7.10">
        <route edges="23162032#1 925891964 654492155 27617819#0 27617819#1 27617819#2 27617819#3 765527988#1 35902564#0 35902564#1 35902564#2 35902564#3 614779081#1 35901888#0 636388787#6"/>
    </vehicle>
    <vehicle id="72" depart="7.20">
        <route edges="34475191#2 34475191#3 34475191#4 27617860 27617819#0 27617819#1 27617819#2 27617819#3 765527988#1 765527988#2 -627718562#1 -838607006 35901833#0 -255925785#1 591569083 929226387#0 929226387#1 929226387#2 23162032#0 23162032#1"/>
    </vehicle>
    <vehicle id="73" depart="7.30">
        <route edges="35901888#2 35901888#3 35901888#4 765527988#1 765527988#2 -627718562#1 -838607006 35901833#0 -255925785#1 591569083 929226387#0 929226387#1 929226387#2 23162032#0 23162032#1 925891964 654492156 835536544 559702823#0 559702823#2 559702823#3 559702823#4"/>
    </vehicle>
    <vehicle id="76" depart="7.60">
        <route edges="34475191#4 35902033#0 35902033#1 35902033#2 636388787#3 636388787#4 636388787#5 35901888#2 35901888#3"/>
    </vehicle>
    <vehicle id="77" depart="7.70">
        <route edges="-766243192#1 -255925785#1 591569083 929226387#0 929226387#1 929226387#2 23162032#0 23162032#1"/>
    </vehicle>
    <vehicle id="78" depart="7.80">
        <route edges="30098185#1 35902125#3 35902125#4 35902125#5"/>
    </vehicle>
    <vehicle id="79" depart="7.90">
        <route edges="190525285#0 358055191#0 358055191#1 591569083 929226387#0 929226387#1 929226387#2 23162032#0 23162032#1"/>
    </vehicle>
    <vehicle id="80" depart="8.00">
        <route edges="-35901833#1 838607006 627718562#0 -627718562#1 -838607006 35901833#0 -255925785#1 591569083 929226387#0 929226387#1 929226387#2 23162032#0 23162032#1 925891964 654492155 27617819#0 27617819#1 27617819#2 27617819#3 765527988#1 35902564#0 35902564#1 35902564#2"/>
    </vehicle>
    <vehicle id="81" depart="8.10">
        <route edges="190525285#0 358055191#0 358055191#1 591569083 929226387#0 929226387#1 929226387#2 23162032#0 23162032#1 925891964 654492155 27617819#0 27617819#1 27617819#2 27617819#3 765527988#1 765527988#2"/>
    </vehicle>
    <vehicle id="85" depart="8.50">
        <route edges="654492156 835536544 559702823#0 559702823#2 559702823#3 636388787#0 636388787#1 636388787#2 35902033#3"/>
    </vehicle>
    <vehicle id="89" depart="8.90">
        <route edges="34475191#3 34475191#4 27617860 27617819#0 27617819#1 27617819#2 27617819#3 765527988#1 765527988#2 -627718562#1 -838607006 35901833#0"/>
    </vehicle>
    <vehicle id="91" depart="9.10">
        <route edges="929226387#2 23162032#0 23162032#1 925891964 654492155 27617819#0 27617819#1 27617819#2 27617819#3 765527988#1 765527988#2 -627718562#1"/>
    </vehicle>
    <vehicle id="92" depart="9.20">
        <route edges="34475191#0 636388787#1 349851320#1 34474997#7"/>
    </vehicle>
    <vehicle id="95" depart="9.50">
        <route edges="34475191#2 34475191#3 34475191#4 27617860 27617819#0 27617819#1 27617819#2 27617819#3 765527988#1 35902564#0 35902564#1 35902564#2 35902564#3 614779081#1 34474997#0 34474997#2 30098185#0"/>
    </vehicle>
    <vehicle id="96" depart="9.60">
        <route edges="23162032#0 23162032#1 925891964 654492155 27617819#0 27617819#1 27617819#2 27617819#3 765527988#1 765527988#2 -627718562#1 -838607006 35901833#0 766243192#0"/>
    </vehicle>
    <vehicle id="97" depart="9.70">
        <route edges="349851320#0 636388787#2 636388787#3 636388787#4"/>
    </vehicle>
    <vehicle id="98" depart="9.80">
        <route edges="35901888#3 35901888#4 765527988#1 765527988#2 -627718562#1 -838607006 35901833#0 -255925785#1"/>
    </vehicle>
    <vehicle id="99" depart="9.90">
        <route edges="934005397 35902033#0 35902033#1 35902125#4 35902125#5 35902125#6 559702823#3 636388787#0 636388787#1"/>
    </vehicle>
    <vehicle id="100" depart="10.00">
        <route edges="817140099#0 35901888#0 35901888#2 35901888#3 35901888#4 765527988#1 765527988#2 -627718562#1 -838607006 35901833#0 766243192#0"/>
    </vehicle>
    <vehicle id="102" depart="10.20">
        <route edges="358055191#1 591569083 929226387#0 929226387#1 929226387#2 23162032#0 23162032#1"/>
    </vehicle>
    <vehicle id="103" depart="10.30">
        <route edges="34475191#0 34475191#1 34475191#2 34475191#3 34475191#4 27617860 27617819#0 27617819#1 27617819#2 27617819#3 765527988#1 765527988#2 -627718562#1 -838607006 35901833#0 -255925785#1 255925785#1 -35901833#1"/>
    </vehicle>
    <vehicle id="104" depart="10.40">
        <route edges="34474997#4 34474997#7 34475191#0 34475191#1 34475191#2 34475191#3 34475191#4 27617860 27617819#0 27617819#1 27617819#2 27617819#3 765527988#1 765527988#2 -627718562#1 -838607006 35901833#0 -255925785#1 591569083 929226387#0 929226387#1 929226387#2"/>
    </vehicle>
    <vehicle id="107" depart="10.70">
        <route edges="765527988#2 -627718562#1 -838607006 35901833#0 -255925785#1 591569083 929226387#0 929226387#1 929226387#2 23162032#0 23162032#1 925891964 654492155 27617819#0 934005397"/>
    </vehicle>
    <vehicle id="108" depart="10.80">
        <route edges="35901888#4 765527988#1 765527988#2 -627718562#1 -838607006 35901833#0 -255925785#1 591569083 929226387#0 929226387#1 929226387#2 23162032#0 23162032#1 925891964 654492156 835536544 559702823#0 559702823#2 559702823#3"/>
    </vehicle>
    <vehicle id="110" depart="11.00">
        <route edges="817140099#0 34474997#0 34474997#2 30098185#0 30098185#1 35902125#3 35902125#4"/>
    </vehicle>
    <vehicle id="111" depart="11.10">
        <route edges="35901888#3 35901888#4 765527988#1 765527988#2 35903166#0 656659021 27131168#0 27131168#2 27131168#4 61279128#0"/>
    </vehicle>
    <vehicle id="112" depart="11.20">
        <route edges="-35901833#1 838607006 627718562#0 -627718562#1 -838607006 35901833#0 -255925785#1 591569083 929226387#0 929226387#1 929226387#2 23162032#0 23162032#1 925891964 654492155 27617819#0 934005397 35902033#0 35902033#1 35902125#4"/>
    </vehicle>
    <vehicle id="113" depart="11.30">
        <route edges="35901833#0 -255925785#1 591569083 929226387#0 929226387#1 929226387#2 23162032#0 23162032#1 925891964 654492156 835536544 559702823#0 559702823#2 559702823#3 636388787#0 636388787#1 636388787#2"/>
    </vehicle>
    <vehicle id="118" depart="11.80">
        <route edges="636388787#1 636388787#2 636388787#3 30098185#1 30098185#2 30098185#3 30098185#4 27617860 27617819#0 27617819#1 27617819#2 27617819#3 765527988#1 765527988#2 35903166#0 656659021 27131168#0 27131168#2 27131168#4"/>
    </vehicle>
    <vehicle id="119" depart="11.90">
        <route edges="35902033#2 636388787#3 30098185#1 30098185#2 30098185#3 30098185#4 27617860 27617819#0 27617819#1 27617819#2 27617819#3 765527988#1 35902564#0 35902564#1"/>
    </vehicle>
    <vehicle id="120" depart="12.00">
        <route edges="34475191#2 34475191#3 34475191#4 35902033#0 35902033#1 35902125#4"/>
    </vehicle>
    <vehicle id="124" depart="12.40">
        <route edges="35902564#2 35902564#3 614779081#1 34474997#0 34474997#2 30098185#0 30098185#1 30098185#2 30098185#3"/>
    </vehicle>
    <vehicle id="125" depart="12.50">
        <route edges="27617860 27617819#0 27617819#1 27617819#2 27617819#3 765527988#1 765527988#2 35903166#0 656659021 27131168#0 27131168#2 27131168#4 61279128#0 61279128#1"/>
    </vehicle>
    <vehicle id="126" depart="12.60">
        <route edges="-35901833#1 838607006 627718562#0 -627718562#1 -838607006 35901833#0"/>
    </vehicle>
    <vehicle id="127" depart="12.70">
        <route edges="934005397"/>
    </vehicle>
    <vehicle id="128" depart="12.80">
        <route edges="-35901833#1 838607006 627718562#0 -627718562#1 -838607006 35901833#0 -255925785#1 591569083 929226387#0 929226387#1 929226387#2 23162032#0 23162032#1"/>
    </vehicle>
    <vehicle id="129" depart="12.90">
        <route edges="23162032#1 925891964 654492155 27617819#0 27617819#1 27617819#2 27617819#3 765527988#1 765527988#2 -627718562#1 -838607006 35901833#0 766243192#0"/>
    </vehicle>
    <vehicle id="130" depart="13.00">
        <route edges="627718562#0 -627718562#1 -838607006 35901833#0 -255925785#1 591569083 929226387#0 929226387#1 929226387#2 23162032#0 23162032#1 925891964 654492156"/>
    </vehicle>
    <vehicle id="133" depart="13.30">
        <route edges="35902125#0 35902125#1 35902125#2 30098185#2 30098185#3 30098185#4 27617860 27617819#0 27617819#1 27617819#2 27617819#3 765527988#1 765527988#2 -627718562#1 -838607006 35901833#0 -255925785#1 591569083 929226387#0 929226387#1 929226387#2"/>
    </vehicle>
    <vehicle id="136" depart="13.60">
        <route edges="35902564#1 35902564#2 35902564#3 614779081#1 35901888#0 35901888#2 35901888#3 35901888#4 765527988#1 765527988#2 -627718562#1 -838607006 35901833#0 766243192#0"/>
    </vehicle>
    <vehicle id="137" depart="13.70">
        <route edges="-766243192#1 -35901833#1 838607006 627718562#0 1280111588"/>
    </vehicle>
    <vehicle id="138" depart="13.80">
        <route edges="-766243192#1 -255925785#1 591569083 929226387#0 929226387#1 929226387#2 23162032#0 23162032#1 925891964 654492155 27617819#0 934005397 35902033#0 35902033#1"/>
    </vehicle>
    <vehicle id="139" depart="13.90">
        <route edges="23162032#1 925891964 654492155 27617819#0 27617819#1 27617819#2 27617819#3 765527988#1 35902564#0"/>
    </vehicle>
    <vehicle id="140" depart="14.00">
        <route edges="35902785#0 756195260#0 190525285#0 358055191#0 358055191#1 591569083 929226387#0 929226387#1 929226387#2 23162032#0"/>
    </vehicle>
    <vehicle id="141" depart="14.10">
        <route edges="35902125#6 559702823#3 636388787#0 34475191#1 34475191#2 34475191#3 34475191#4 27617860 27617819#0 27617819#1 27617819#2 27617819#3"/>
    </vehicle>
    <vehicle id="142" depart="14.20">
        <route edges="358055191#1 591569083 929226387#0 929226387#1 929226387#2 23162032#0 23162032#1 925891964 654492155 27617819#0 27617819#1 27617819#2 27617819#3 765527988#1 765527988#2"/>
    </vehicle>
    <vehicle id="143" depart="14.30">
        <route edges="614779081#0 614779081#1 35901888#0 35901888#2 35901888#3 35901888#4 765527988#1 765527988#2 -627718562#1"/>
    </vehicle>
    <vehicle id="144" depart="14.40">
        <route edges="34475191#3 34475191#4 35902033#0 35902033#1 35902125#4 27617865"/>
    </vehicle>
    <vehicle id="145" depart="14.50">
        <route edges="-146544718#0 35903166#0 656659021 27131168#0 27131168#2 27131168#4 61279128#0 61279128#1"/>
    </vehicle>
    <vehicle id="146" depart="14.60">
        <route edges="35902564#0 35902564#1 35902564#2 35902564#3 614779081#1 34474997#0 34474997#2 30098185#0 30098185#1 30098185#2 30098185#3 30098185#4 27617860 27617819#0 27617819#1 27617819#2 27617819#3"/>
    </vehicle>
    <vehicle id="147" depart="14.70">
        <route edges="35902785#0 35902651 358055176#0 654492155 27617819#0 934005397 35902033#0 35902033#1"/>
    </vehicle>
    <vehicle id="149" depart="14.90">
        <route edges="-35901833#1 838607006 627718562#0 35903166#0 656659021"/>
    </vehicle>
    <vehicle id="150" depart="15.00">
        <route edges="636388787#2 636388787#3 30098185#1 30098185#2 30098185#3 30098185#4 35902033#0 35902033#1"/>
    </vehicle>
    <vehicle id="152" depart="15.20">
        <route edges="-766243192#1 -35901833#1 838607006 627718562#0 1280111588"/>
    </vehicle>
    <vehicle id="153" depart="15.30">
        <route edges="27617819#3 765527988#1 765527988#2"/>
    </vehicle>
    <vehicle id="154" depart="15.40">
        <route edges="559702823#2 559702823#3 636388787#0 636388787#1 636388787#2 636388787#3 636388787#4"/>
    </vehicle>
    <vehicle id="155" depart="15.50">
        <route edges="636388787#1 636388787#2 636388787#3 30098185#1 30098185#2 30098185#3 30098185#4 27617860 27617819#0 27617819#1 27617819#2 27617819#3 765527988#1 765527988#2 -627718562#1 -838607006 35901833#0 -255925785#1 591569083 929226387#0 929226387#1 929226387#2 23162032#0 23162032#1"/>
    </vehicle>
    <vehicle id="156" depart="15.60">
        <route edges="23162032#0 23162032#1 925891964 654492155 27617819#0 27617819#1 27617819#2 27617819#3 765527988#1 35902564#0 35902564#1 35902564#2 35902564#3 614779081#1 -817140099#2"/>
    </vehicle>
    <vehicle id="157" depart="15.70">
        <route edges="559702823#0 559702823#2 559702823#3 636388787#0 34475191#1 34475191#2 34475191#3 34475191#4 27617860 27617819#0 27617819#1 27617819#2 27617819#3 765527988#1 765527988#2 35903166#0 656659021"/>
    </vehicle>
    <vehicle id="158" depart="15.80">
        <route edges="34475191#1 34475191#2 34475191#3 34475191#4 27617860 27617819#0 27617819#1 27617819#2 27617819#3 765527988#1 35902564#0 35902564#1"/>
    </vehicle>
    <vehicle id="160" depart="16.00">
        <route edges="627718562#0 -627718562#1 -838607006 35901833#0 -255925785#1 591569083 929226387#0"/>
    </vehicle>
    <vehicle id="161" depart="16.10">
        <route edges="559702823#3 636388787#0 34475191#1 34475191#2 34475191#3 34475191#4 27617860 27617819#0 27617819#1 27617819#2 27617819#3 765527988#1 765527988#2 -627718562#1 -838607006 35901833#0 -255925785#1 591569083 929226387#0 929226387#1 929226387#2 23162032#0 23162032#1 925891964 654492156"/>
    </vehicle>
    <vehicle id="162" depart="16.20">
        <route edges="-146544718#1 -146544718#0 -627718562#1 -838607006 35901833#0 -255925785#1 591569083 929226387#0 929226387#1 929226387#2 23162032#0 23162032#1 925891964 654492156 835536544 559702823#0 559702823#2 559702823#3 559702823#4"/>
    </vehicle>
    <vehicle id="163" depart="16.30">
        <route edges="30098185#1 30098185#2 30098185#3 30098185#4 27617860 27617819#0 27617819#1 27617819#2 27617819#3 765527988#1 765527988#2 -627718562#1 -838607006 35901833#0 766243192#0"/>
    </vehicle>
    <vehicle id="164" depart="16.40">
        <route edges="559702823#3 636388787#0 636388787#1 636388787#2 636388787#3 636388787#4 636388787#5"/>
    </vehicle>
    <vehicle id="165" depart="16.50">
        <route edges="559702823#3 636388787#0 34475191#1 34475191#2 34475191#3 34475191#4 27617860"/>
    </vehicle>
    <vehicle id="166" depart="16.60">
        <route edges="559702823#0 559702823#2 559702823#3 636388787#0 636388787#1 636388787#2 636388787#3 636388787#4 636388787#5 636388787#6 35902564#3 614779081#1 -817140099#2"/>
    </vehicle>
    <vehicle id="167" depart="16.70">
        <route edges="627718562#0 -627718562#1 -838607006 35901833#0 -255925785#1 591569083 929226387#0 929226387#1 929226387#2 23162032#0 23162032#1 925891964 654492155 27617819#0 934005397 35902033#0 35902033#1 35902033#2 636388787#3 636388787#4"/>
    </vehicle>
    <vehicle id="168" depart="16.80">
        <route edges="190525285#0 358055191#0 358055191#1 255925785#1 -35901833#1 838607006 627718562#0"/>
    </vehicle>
    <vehicle id="169" depart="16.90">
        <route edges="349851327#0 349851327#1 765527988#1 35902564#0 35902564#1 35902564#2 35902564#3 614779081#1 34474997#0 34474997#2 30098185#0 30098185#1 30098185#2 30098185#3"/>
    </vehicle>
    <vehicle id="170" depart="17.00">
        <route edges="559702823#2 559702823#3 636388787#0 34475191#1 34475191#2 34475191#3 34475191#4 27617860 27617819#0 27617819#1 27617819#2 27617819#3 765527988#1 765527988#2 -627718562#1 -838607006 35901833#0 -255925785#1 255925785#1"/>
    </vehicle>
    <vehicle id="172" depart="17.20">
        <route edges="30098185#1 35902125#3 35902033#2 636388787#3 636388787#4 636388787#5"/>
    </vehicle>
    <vehicle id="173" depart="17.30">
        <route edges="817140099#0 34474997#0 34474997#2 30098185#0"/>
    </vehicle>
    <vehicle id="174" depart="17.40">
        <route edges="35902564#0 35902564#1 35902564#2 35902564#3 614779081#1 34474997#0 34474997#2 30098185#0 30098185#1 30098185#2 30098185#3 30098185#4 349851317#0 349851317#1"/>
    </vehicle>
    <vehicle id="175" depart="17.50">
        <route edges="929226387#1 929226387#2 23162032#0 23162032#1 925891964 654492155 27617819#0 27617819#1 27617819#2 27617819#3 765527988#1 35902564#0 35902564#1 35902564#2 35902564#3 614779081#1 35901888#0 35901888#2 35901888#3 35901888#4"/>
    </vehicle>
    <vehicle id="178" depart="17.80">
        <route edges="817140099#0 34474997#0 34474997#2 30098185#0 30098185#1 30098185#2 30098185#3 30098185#4 27617860 27617819#0 27617819#1 27617819#2 27617819#3"/>
    </vehicle>
    <vehicle id="180" depart="18.00">