<?xml version="1.0" encoding="UTF-8"?>

<!-- generated on 2024-08-16 21:11:21 by Eclipse SUMO netconvert Version 1.20.0
<configuration xmlns:xsi="http://www.w3.org/2001/XMLSchema-instance" xsi:noNamespaceSchemaLocation="http://sumo.dlr.de/xsd/netconvertConfiguration.xsd">

    <input>
        <osm-files value="map.osm"/>
    </input>

    <output>
        <output-file value="spain.simple.net.xml"/>
    </output>

    <projection>
        <proj.utm value="true"/>
    </projection>

    <processing>
        <geometry.remove value="true"/>
    </processing>

    <tls_building>
        <tls.discard-simple value="true"/>
        <tls.join value="true"/>
        <tls.guess-signals value="true"/>
        <tls.default-type value="actuated"/>
    </tls_building>

    <ramp_guessing>
        <ramps.guess value="true"/>
    </ramp_guessing>

    <junctions>
        <junctions.join value="true"/>
    </junctions>

    <formats>
        <osm.sidewalks value="true"/>
        <osm.turn-lanes value="true"/>
    </formats>

</configuration>
-->

<net version="1.20" junctionCornerDetail="5" limitTurnSpeed="5.50" xmlns:xsi="http://www.w3.org/2001/XMLSchema-instance" xsi:noNamespaceSchemaLocation="http://sumo.dlr.de/xsd/net_file.xsd">

    <location netOffset="-372105.16,-4063833.49" convBoundary="0.00,0.00,1763.62,1018.00" origBoundary="-4.432015,36.711678,-4.412381,36.720881" projParameter="+proj=utm +zone=30 +ellps=WGS84 +datum=WGS84 +units=m +no_defs"/>

    <type id="highway.cycleway" priority="1" numLanes="1" speed="5.56" allow="bicycle" oneway="0" width="2.00"/>
    <type id="highway.footway" priority="1" numLanes="1" speed="2.78" allow="pedestrian" oneway="1" width="2.00"/>
    <type id="highway.living_street" priority="2" numLanes="1" speed="2.78" disallow="tram rail_urban rail rail_electric rail_fast ship container cable_car subway aircraft wheelchair scooter drone" oneway="0"/>
    <type id="highway.pedestrian" priority="1" numLanes="1" speed="2.78" allow="pedestrian" oneway="1" width="2.00"/>
    <type id="highway.primary" priority="12" numLanes="2" speed="27.78" disallow="tram rail_urban rail rail_electric rail_fast ship container cable_car subway aircraft wheelchair scooter drone" oneway="0"/>
    <type id="highway.primary_link" priority="7" numLanes="1" speed="22.22" disallow="tram rail_urban rail rail_electric rail_fast ship container cable_car subway aircraft wheelchair scooter drone" oneway="0"/>
    <type id="highway.residential" priority="3" numLanes="1" speed="13.89" disallow="tram rail_urban rail rail_electric rail_fast ship container cable_car subway aircraft wheelchair scooter drone" oneway="0"/>
    <type id="highway.secondary" priority="11" numLanes="1" speed="27.78" disallow="tram rail_urban rail rail_electric rail_fast ship container cable_car subway aircraft wheelchair scooter drone" oneway="0"/>
    <type id="highway.secondary_link" priority="6" numLanes="1" speed="22.22" disallow="tram rail_urban rail rail_electric rail_fast ship container cable_car subway aircraft wheelchair scooter drone" oneway="0"/>
    <type id="highway.service" priority="1" numLanes="1" speed="5.56" allow="pedestrian delivery bicycle" oneway="0"/>
    <type id="highway.steps" priority="1" numLanes="1" speed="1.39" allow="pedestrian" oneway="1" width="2.00"/>
    <type id="highway.tertiary" priority="10" numLanes="1" speed="22.22" disallow="tram rail_urban rail rail_electric rail_fast ship container cable_car subway aircraft wheelchair scooter drone" oneway="0"/>
    <type id="railway.light_rail" priority="19" numLanes="1" speed="27.78" allow="rail_urban" oneway="1"/>
    <type id="railway.rail" priority="20" numLanes="1" speed="44.44" allow="rail" oneway="1"/>

    <edge id=":10239694621_0" function="internal">
        <lane id=":10239694621_0_0" index="0" allow="delivery bicycle" speed="5.56" length="5.14" shape="1030.09,716.17 1025.21,714.55"/>
    </edge>
    <edge id=":1594719885_0" function="internal">
        <lane id=":1594719885_0_0" index="0" disallow="tram rail_urban rail rail_electric rail_fast ship container cable_car subway aircraft wheelchair scooter drone" speed="13.89" length="6.26" shape="971.47,708.87 970.07,707.88 969.57,706.56 969.06,705.23 967.67,704.25"/>
        <lane id=":1594719885_0_1" index="1" disallow="tram rail_urban rail rail_electric rail_fast ship container cable_car subway aircraft wheelchair scooter drone" speed="13.89" length="6.26" shape="972.48,705.84 971.08,704.85 970.57,703.52 970.06,702.19 968.66,701.21"/>
    </edge>
    <edge id=":1594719885_2" function="internal">
        <lane id=":1594719885_2_0" index="0" disallow="tram rail_urban rail rail_electric rail_fast ship container cable_car subway aircraft wheelchair scooter drone" speed="13.89" length="5.12" shape="971.64,692.08 976.52,693.69"/>
        <lane id=":1594719885_2_1" index="1" disallow="tram rail_urban rail rail_electric rail_fast ship container cable_car subway aircraft wheelchair scooter drone" speed="13.89" length="5.12" shape="970.64,695.13 975.51,696.73"/>
        <lane id=":1594719885_2_2" index="2" disallow="tram rail_urban rail rail_electric rail_fast ship container cable_car subway aircraft wheelchair scooter drone" speed="13.89" length="5.12" shape="969.65,698.17 974.50,699.76"/>
    </edge>
    <edge id=":1628378034_0" function="internal">
        <lane id=":1628378034_0_0" index="0" disallow="tram rail_urban rail rail_electric rail_fast ship container cable_car subway aircraft wheelchair scooter drone" speed="10.50" length="9.99" shape="922.45,456.37 919.69,457.58 917.64,458.41 916.10,459.67 914.91,462.18"/>
    </edge>
    <edge id=":1628378034_1" function="internal">
        <lane id=":1628378034_1_0" index="0" disallow="tram rail_urban rail rail_electric rail_fast ship container cable_car subway aircraft wheelchair scooter drone" speed="13.89" length="10.40" shape="919.57,453.53 918.11,456.07 916.95,457.74 915.94,459.46 914.91,462.18"/>
        <lane id=":1628378034_1_1" index="1" disallow="tram rail_urban rail rail_electric rail_fast ship container cable_car subway aircraft wheelchair scooter drone" speed="13.89" length="10.40" shape="916.73,452.07 915.19,454.75 913.99,456.52 912.94,458.35 911.86,461.22"/>
        <lane id=":1628378034_1_2" index="2" disallow="tram rail_urban rail rail_electric rail_fast ship container cable_car subway aircraft wheelchair scooter drone" speed="13.89" length="10.40" shape="913.88,450.61 912.27,453.43 911.02,455.30 909.94,457.24 908.80,460.26"/>
    </edge>
    <edge id=":1628378034_4" function="internal">
        <lane id=":1628378034_4_0" index="0" disallow="tram rail_urban rail rail_electric rail_fast ship container cable_car subway aircraft wheelchair scooter drone" speed="5.43" length="4.94" shape="906.06,456.54 907.47,457.50 908.40,458.44 908.84,459.36 908.80,460.26"/>
    </edge>
    <edge id=":1628757642_0" function="internal">
        <lane id=":1628757642_0_0" index="0" disallow="pedestrian tram rail_urban rail rail_electric rail_fast ship container cable_car subway aircraft wheelchair scooter drone" speed="3.65" length="4.67" shape="577.07,457.54 576.13,456.45 575.96,455.57 576.56,454.91 577.93,454.46"/>
    </edge>
    <edge id=":1936301695_0" function="internal">
        <lane id=":1936301695_0_0" index="0" allow="pedestrian delivery bicycle" speed="5.56" length="22.44" shape="756.22,93.47 755.56,88.60 754.56,82.37 753.47,76.16 752.53,71.34"/>
    </edge>
    <edge id=":1936301695_1" function="internal">
        <lane id=":1936301695_1_0" index="0" allow="pedestrian delivery bicycle" speed="5.56" length="22.77" shape="755.65,70.66 756.61,75.53 757.72,81.85 758.73,88.19 759.40,93.11"/>
    </edge>
    <edge id=":1936301695_2" function="internal">
        <lane id=":1936301695_2_0" index="0" allow="rail" speed="44.44" length="28.74" shape="749.10,72.94 752.95,77.40 758.70,83.63 764.56,89.75 768.73,93.92"/>
    </edge>
    <edge id=":1936301695_3" function="internal">
        <lane id=":1936301695_3_0" index="0" allow="rail" speed="44.44" length="28.80" shape="749.10,72.94 766.08,96.21"/>
    </edge>
    <edge id=":1936301702_0" function="internal">
        <lane id=":1936301702_0_0" index="0" allow="rail" speed="44.44" length="34.34" shape="756.92,104.60 760.21,110.52 765.40,119.53 770.69,128.48 774.25,134.23"/>
    </edge>
    <edge id=":1936301702_1" function="internal">
        <lane id=":1936301702_1_0" index="0" allow="rail" speed="44.44" length="34.26" shape="756.92,104.60 771.15,135.77"/>
    </edge>
    <edge id=":1936301732_0" function="internal">
        <lane id=":1936301732_0_0" index="0" allow="pedestrian delivery bicycle" speed="3.65" length="4.67" shape="796.67,190.54 796.53,189.10 796.89,188.28 797.77,188.09 799.14,188.51"/>
    </edge>
    <edge id=":1936301758_0" function="internal">
        <lane id=":1936301758_0_0" index="0" allow="pedestrian delivery bicycle" speed="3.65" length="4.67" shape="1094.87,422.69 1096.29,422.42 1097.13,422.71 1097.41,423.56 1097.12,424.98"/>
    </edge>
    <edge id=":1936301760_0" function="internal">
        <lane id=":1936301760_0_0" index="0" allow="rail" speed="44.44" length="51.13" shape="984.23,395.55 1013.82,437.26"/>
    </edge>
    <edge id=":1936301760_1" function="internal">
        <lane id=":1936301760_1_0" index="0" allow="rail" speed="44.44" length="51.07" shape="981.63,397.61 1013.82,437.26"/>
    </edge>
    <edge id=":1936301765_0" function="internal">
        <lane id=":1936301765_0_0" index="0" allow="pedestrian delivery bicycle" speed="5.13" length="4.71" shape="1005.70,468.39 1004.76,467.48 1003.76,467.04 1002.69,467.05 1001.55,467.54"/>
    </edge>
    <edge id=":1936301765_1" function="internal">
        <lane id=":1936301765_1_0" index="0" allow="pedestrian delivery bicycle" speed="5.56" length="9.49" shape="1005.70,468.39 999.72,461.02"/>
    </edge>
    <edge id=":1936301765_2" function="internal">
        <lane id=":1936301765_2_0" index="0" allow="pedestrian delivery bicycle" speed="3.65" length="4.67" shape="1005.70,468.39 1005.58,466.95 1005.96,466.14 1006.83,465.95 1008.21,466.39"/>
    </edge>
    <edge id=":1936301765_3" function="internal">
        <lane id=":1936301765_3_0" index="0" allow="pedestrian delivery bicycle" speed="5.56" length="9.55" shape="1002.19,458.99 1008.21,466.39"/>
    </edge>
    <edge id=":1936301765_4" function="internal">
        <lane id=":1936301765_4_0" index="0" allow="pedestrian delivery bicycle" speed="5.56" length="10.11" shape="1002.19,458.99 1003.83,461.56 1004.27,463.84 1003.51,465.83 1001.55,467.54"/>
    </edge>
    <edge id=":1936301765_5" function="internal">
        <lane id=":1936301765_5_0" index="0" allow="pedestrian delivery bicycle" speed="3.65" length="4.67" shape="1002.19,458.99 1002.33,460.42 1001.97,461.24 1001.10,461.44 999.72,461.02"/>
    </edge>
    <edge id=":1936301765_6" function="internal">
        <lane id=":1936301765_6_0" index="0" allow="pedestrian delivery bicycle" speed="4.80" length="4.91" shape="999.29,465.16 1000.28,464.32 1000.68,463.35 1000.49,462.25 999.72,461.02"/>
    </edge>
    <edge id=":1936301765_7" function="internal">
        <lane id=":1936301765_7_0" index="0" allow="pedestrian delivery bicycle" speed="5.56" length="10.00" shape="999.29,465.16 1001.85,464.02 1004.19,463.84 1006.31,464.64 1008.21,466.39"/>
    </edge>
    <edge id=":1936301765_8" function="internal">
        <lane id=":1936301765_8_0" index="0" allow="pedestrian delivery bicycle" speed="3.68" length="4.78" shape="999.29,465.16 1000.74,464.91 1001.61,465.22 1001.87,466.10 1001.55,467.54"/>
    </edge>
    <edge id=":1936301770_0" function="internal">
        <lane id=":1936301770_0_0" index="0" allow="pedestrian delivery bicycle" speed="5.56" length="12.18" shape="1032.29,472.25 1024.07,463.26"/>
    </edge>
    <edge id=":1936301770_1" function="internal">
        <lane id=":1936301770_1_0" index="0" allow="pedestrian delivery bicycle" speed="5.56" length="19.64" shape="1032.29,472.25 1028.03,466.90 1027.37,464.27 1030.33,464.35 1036.90,467.15"/>
    </edge>
    <edge id=":1936301770_2" function="internal">
        <lane id=":1936301770_2_0" index="0" allow="pedestrian delivery bicycle" speed="3.65" length="4.67" shape="1032.29,472.25 1032.08,470.82 1032.40,469.99 1033.26,469.75 1034.66,470.10"/>
    </edge>
    <edge id=":1936301770_3" function="internal">
        <lane id=":1936301770_3_0" index="0" allow="pedestrian delivery bicycle" speed="5.56" length="12.11" shape="1026.51,461.19 1028.87,463.42 1031.24,464.77 1033.84,465.82 1036.90,467.15"/>
    </edge>
    <edge id=":1936301770_4" function="internal">
        <lane id=":1936301770_4_0" index="0" allow="pedestrian delivery bicycle" speed="5.56" length="12.08" shape="1026.51,461.19 1034.66,470.10"/>
    </edge>
    <edge id=":1936301770_5" function="internal">
        <lane id=":1936301770_5_0" index="0" allow="pedestrian delivery bicycle" speed="3.65" length="4.67" shape="1026.51,461.19 1026.68,462.62 1026.33,463.44 1025.46,463.66 1024.07,463.26"/>
    </edge>
    <edge id=":1936301774_0" function="internal">
        <lane id=":1936301774_0_0" index="0" allow="pedestrian delivery bicycle" speed="5.56" length="25.78" shape="1042.85,514.24 1038.36,511.14 1032.11,507.01 1026.01,502.74 1021.95,499.19"/>
    </edge>
    <edge id=":1936301774_1" function="internal">
        <lane id=":1936301774_1_0" index="0" allow="pedestrian delivery bicycle" speed="5.56" length="26.20" shape="1042.85,514.24 1039.01,510.35 1034.18,504.48 1029.52,498.45 1026.16,494.08"/>
    </edge>
    <edge id=":1936301774_2" function="internal">
        <lane id=":1936301774_2_0" index="0" allow="pedestrian delivery bicycle" speed="3.65" length="4.67" shape="1042.85,514.24 1042.39,512.87 1042.55,511.99 1043.36,511.60 1044.80,511.70"/>
    </edge>
    <edge id=":1936301774_3" function="internal">
        <lane id=":1936301774_3_0" index="0" allow="pedestrian delivery bicycle" speed="5.56" length="25.42" shape="1028.66,492.09 1031.94,496.37 1036.41,502.22 1041.04,507.90 1044.80,511.70"/>
    </edge>
    <edge id=":1936301774_4" function="internal">
        <lane id=":1936301774_4_0" index="0" allow="pedestrian delivery bicycle" speed="4.82" length="9.78" shape="1028.66,492.09 1021.95,499.19"/>
    </edge>
    <edge id=":1936301774_5" function="internal">
        <lane id=":1936301774_5_0" index="0" allow="pedestrian delivery bicycle" speed="3.65" length="4.67" shape="1028.66,492.09 1028.78,493.53 1028.41,494.34 1027.53,494.52 1026.16,494.08"/>
    </edge>
    <edge id=":1936301774_6" function="internal">
        <lane id=":1936301774_6_0" index="0" allow="pedestrian delivery bicycle" speed="3.29" length="3.33" shape="1023.87,496.50 1026.16,494.08"/>
    </edge>
    <edge id=":1936301774_7" function="internal">
        <lane id=":1936301774_7_0" index="0" allow="pedestrian delivery bicycle" speed="5.56" length="25.89" shape="1023.87,496.50 1027.93,500.07 1034.05,504.40 1040.30,508.58 1044.80,511.70"/>
    </edge>
    <edge id=":1936301774_8" function="internal">
        <lane id=":1936301774_8_0" index="0" allow="pedestrian delivery bicycle" speed="3.69" length="4.83" shape="1023.87,496.50 1024.40,497.89 1024.26,498.81 1023.44,499.24 1021.95,499.19"/>
    </edge>
    <edge id=":1936301803_0" function="internal">
        <lane id=":1936301803_0_0" index="0" disallow="pedestrian tram rail_urban rail rail_electric rail_fast ship container cable_car subway aircraft wheelchair scooter drone" speed="13.89" length="5.23" shape="1058.44,589.20 1061.63,593.27"/>
        <lane id=":1936301803_0_1" index="1" disallow="pedestrian tram rail_urban rail rail_electric rail_fast ship container cable_car subway aircraft wheelchair scooter drone" speed="13.89" length="5.23" shape="1055.90,591.15 1059.13,595.27"/>
        <lane id=":1936301803_0_2" index="2" disallow="pedestrian tram rail_urban rail rail_electric rail_fast ship container cable_car subway aircraft wheelchair scooter drone" speed="13.89" length="5.23" shape="1053.37,593.10 1056.63,597.27"/>
    </edge>
    <edge id=":1936301811_0" function="internal">
        <lane id=":1936301811_0_0" index="0" disallow="pedestrian tram rail_urban rail rail_electric rail_fast ship container cable_car subway aircraft wheelchair scooter drone" speed="13.89" length="5.23" shape="1050.67,602.23 1047.48,598.15"/>
        <lane id=":1936301811_0_1" index="1" disallow="pedestrian tram rail_urban rail rail_electric rail_fast ship container cable_car subway aircraft wheelchair scooter drone" speed="13.89" length="5.23" shape="1053.21,600.27 1049.98,596.16"/>
        <lane id=":1936301811_0_2" index="2" disallow="pedestrian tram rail_urban rail rail_electric rail_fast ship container cable_car subway aircraft wheelchair scooter drone" speed="13.89" length="5.23" shape="1055.74,598.32 1052.48,594.16"/>
    </edge>
    <edge id=":1942565753_0" function="internal">
        <lane id=":1942565753_0_0" index="0" disallow="tram rail_urban rail rail_electric rail_fast ship container cable_car subway aircraft wheelchair scooter drone" speed="13.89" length="5.08" shape="667.52,608.31 662.73,606.66"/>
        <lane id=":1942565753_0_1" index="1" disallow="tram rail_urban rail rail_electric rail_fast ship container cable_car subway aircraft wheelchair scooter drone" speed="13.89" length="5.08" shape="668.57,605.29 663.77,603.64"/>
        <lane id=":1942565753_0_2" index="2" disallow="tram rail_urban rail rail_electric rail_fast ship container cable_car subway aircraft wheelchair scooter drone" speed="13.89" length="5.08" shape="669.62,602.27 664.81,600.61"/>
    </edge>
    <edge id=":1942565753_3" function="internal">
        <lane id=":1942565753_3_0" index="0" disallow="tram rail_urban rail rail_electric rail_fast ship container cable_car subway aircraft wheelchair scooter drone" speed="13.89" length="5.11" shape="666.88,594.55 671.71,596.22"/>
        <lane id=":1942565753_3_1" index="1" disallow="tram rail_urban rail rail_electric rail_fast ship container cable_car subway aircraft wheelchair scooter drone" speed="13.89" length="5.11" shape="665.84,597.58 670.66,599.24"/>
    </edge>
    <edge id=":1945600634_0" function="internal">
        <lane id=":1945600634_0_0" index="0" disallow="pedestrian tram rail_urban rail rail_electric rail_fast ship container cable_car subway aircraft wheelchair scooter drone" speed="20.83" length="2.67" shape="898.46,410.97 896.80,408.87"/>
        <lane id=":1945600634_0_1" index="1" disallow="pedestrian tram rail_urban rail rail_electric rail_fast ship container cable_car subway aircraft wheelchair scooter drone" speed="20.83" length="2.67" shape="900.97,408.97 899.30,406.88"/>
        <lane id=":1945600634_0_2" index="2" disallow="pedestrian tram rail_urban rail rail_electric rail_fast ship container cable_car subway aircraft wheelchair scooter drone" speed="20.83" length="2.67" shape="903.47,406.98 901.81,404.89"/>
    </edge>
    <edge id=":1945600655_0" function="internal">
        <lane id=":1945600655_0_0" index="0" allow="delivery bicycle" speed="9.65" length="12.56" shape="1065.93,631.95 1066.82,628.75 1066.87,625.71 1066.08,622.82 1064.44,620.07"/>
    </edge>
    <edge id=":1945600655_1" function="internal">
        <lane id=":1945600655_1_0" index="0" disallow="pedestrian tram rail_urban rail rail_electric rail_fast ship container cable_car subway aircraft wheelchair scooter drone" speed="13.89" length="11.73" shape="1071.87,629.25 1064.44,620.07"/>
        <lane id=":1945600655_1_1" index="1" disallow="pedestrian tram rail_urban rail rail_electric rail_fast ship container cable_car subway aircraft wheelchair scooter drone" speed="13.89" length="11.73" shape="1074.36,627.23 1066.97,618.12"/>
        <lane id=":1945600655_1_2" index="2" disallow="pedestrian tram rail_urban rail rail_electric rail_fast ship container cable_car subway aircraft wheelchair scooter drone" speed="13.89" length="11.73" shape="1076.84,625.22 1069.51,616.16"/>
    </edge>
    <edge id=":1945631370_0" function="internal">
        <lane id=":1945631370_0_0" index="0" disallow="tram rail_urban rail rail_electric rail_fast ship container cable_car subway aircraft wheelchair scooter drone" speed="3.65" length="4.67" shape="588.06,632.61 587.19,631.46 587.08,630.57 587.72,629.95 589.11,629.59"/>
    </edge>
    <edge id=":1946048480_0" function="internal">
        <lane id=":1946048480_0_0" index="0" allow="delivery bicycle" speed="9.72" length="17.63" shape="1092.32,654.50 1088.46,650.56 1084.72,647.81 1081.10,646.24 1077.60,645.85"/>
    </edge>
    <edge id=":1946048480_1" function="internal">
        <lane id=":1946048480_1_0" index="0" disallow="pedestrian tram rail_urban rail rail_electric rail_fast ship container cable_car subway aircraft wheelchair scooter drone" speed="13.89" length="17.00" shape="1092.32,654.50 1081.56,641.21"/>
        <lane id=":1946048480_1_1" index="1" disallow="pedestrian tram rail_urban rail rail_electric rail_fast ship container cable_car subway aircraft wheelchair scooter drone" speed="13.89" length="17.00" shape="1094.74,652.40 1084.05,639.19"/>
        <lane id=":1946048480_1_2" index="2" disallow="pedestrian tram rail_urban rail rail_electric rail_fast ship container cable_car subway aircraft wheelchair scooter drone" speed="13.89" length="17.00" shape="1097.16,650.31 1086.53,637.18"/>
    </edge>
    <edge id=":2023888642_0" function="internal">
        <lane id=":2023888642_0_0" index="0" allow="bicycle" speed="5.56" length="5.98" width="2.00" shape="1084.15,763.86 1082.95,762.57 1082.25,761.58 1081.60,760.54 1080.59,759.08"/>
    </edge>
    <edge id=":2023888642_1" function="internal">
        <lane id=":2023888642_1_0" index="0" allow="bicycle" speed="2.89" length="2.92" width="2.00" shape="1084.15,763.86 1083.97,762.98 1084.14,762.45 1084.67,762.27 1085.56,762.44"/>
    </edge>
    <edge id=":2023888642_2" function="internal">
        <lane id=":2023888642_2_0" index="0" allow="bicycle" speed="5.56" length="5.69" width="2.00" shape="1082.19,757.88 1083.15,759.27 1083.76,760.26 1084.42,761.21 1085.56,762.44"/>
    </edge>
    <edge id=":2023888642_3" function="internal">
        <lane id=":2023888642_3_0" index="0" allow="bicycle" speed="2.89" length="2.92" width="2.00" shape="1082.19,757.88 1082.24,758.78 1081.99,759.28 1081.44,759.38 1080.59,759.08"/>
    </edge>
    <edge id=":2023888655_0" function="internal">
        <lane id=":2023888655_0_0" index="0" allow="bicycle" speed="2.89" length="2.92" width="2.00" shape="1312.75,839.30 1313.28,840.03 1313.34,840.58 1312.93,840.96 1312.05,841.17"/>
    </edge>
    <edge id=":2070949328_0" function="internal">
        <lane id=":2070949328_0_0" index="0" disallow="tram rail_urban rail rail_electric rail_fast ship container cable_car subway aircraft wheelchair scooter drone" speed="13.89" length="5.16" shape="763.74,640.82 758.90,639.17"/>
        <lane id=":2070949328_0_1" index="1" disallow="tram rail_urban rail rail_electric rail_fast ship container cable_car subway aircraft wheelchair scooter drone" speed="13.89" length="5.16" shape="764.79,637.80 759.91,636.13"/>
        <lane id=":2070949328_0_2" index="2" disallow="tram rail_urban rail rail_electric rail_fast ship container cable_car subway aircraft wheelchair scooter drone" speed="13.89" length="5.16" shape="765.85,634.77 760.91,633.10"/>
    </edge>
    <edge id=":2070949328_3" function="internal">
        <lane id=":2070949328_3_0" index="0" disallow="tram rail_urban rail rail_electric rail_fast ship container cable_car subway aircraft wheelchair scooter drone" speed="13.89" length="5.28" shape="762.93,627.02 767.95,628.73"/>
        <lane id=":2070949328_3_1" index="1" disallow="tram rail_urban rail rail_electric rail_fast ship container cable_car subway aircraft wheelchair scooter drone" speed="13.89" length="5.28" shape="761.92,630.06 766.90,631.75"/>
    </edge>
    <edge id=":2507293802_0" function="internal">
        <lane id=":2507293802_0_0" index="0" disallow="tram rail_urban rail rail_electric rail_fast ship container cable_car subway aircraft wheelchair scooter drone" speed="8.33" length="9.41" shape="717.03,501.01 725.99,503.85"/>
    </edge>
    <edge id=":2507293802_1" function="internal">
        <lane id=":2507293802_1_0" index="0" allow="pedestrian delivery bicycle" speed="5.98" length="7.68" shape="717.03,501.01 719.62,502.03 721.33,503.16 722.14,504.40 722.07,505.76"/>
    </edge>
    <edge id=":2507293802_2" function="internal">
        <lane id=":2507293802_2_0" index="0" allow="pedestrian delivery bicycle" speed="5.79" length="6.72" shape="719.57,503.29 720.15,502.83 721.41,502.77 723.36,503.11 725.99,503.85"/>
    </edge>
    <edge id=":2507293802_3" function="internal">
        <lane id=":2507293802_3_0" index="0" allow="pedestrian delivery bicycle" speed="3.77" length="5.14" shape="719.57,503.29 721.12,502.97 722.06,503.27 722.38,504.20 722.07,505.76"/>
    </edge>
    <edge id=":2507293804_0" function="internal">
        <lane id=":2507293804_0_0" index="0" allow="pedestrian delivery bicycle" speed="3.77" length="5.14" shape="722.01,505.95 720.45,506.27 719.52,505.97 719.20,505.03 719.50,503.48"/>
    </edge>
    <edge id=":2507293806_0" function="internal">
        <lane id=":2507293806_0_0" index="0" allow="pedestrian delivery bicycle" speed="3.65" length="4.67" shape="707.96,536.85 709.13,536.01 710.02,535.92 710.63,536.58 710.95,537.98"/>
    </edge>
    <edge id=":2507293809_0" function="internal">
        <lane id=":2507293809_0_0" index="0" disallow="tram rail_urban rail rail_electric rail_fast ship container cable_car subway aircraft wheelchair scooter drone" speed="13.89" length="9.41" shape="712.64,542.44 703.71,539.49"/>
    </edge>
    <edge id=":2507293809_1" function="internal">
        <lane id=":2507293809_1_0" index="0" allow="pedestrian delivery bicycle" speed="6.04" length="7.88" shape="712.64,542.44 710.07,541.37 708.40,540.17 707.63,538.82 707.77,537.34"/>
    </edge>
    <edge id=":2507293809_2" function="internal">
        <lane id=":2507293809_2_0" index="0" allow="pedestrian delivery bicycle" speed="6.20" length="7.83" shape="710.76,538.48 709.90,539.65 708.44,540.21 706.37,540.16 703.71,539.49"/>
    </edge>
    <edge id=":2507293809_3" function="internal">
        <lane id=":2507293809_3_0" index="0" allow="pedestrian delivery bicycle" speed="3.65" length="4.67" shape="710.76,538.48 709.59,539.32 708.70,539.41 708.09,538.75 707.77,537.34"/>
    </edge>
    <edge id=":2609573405_0" function="internal">
        <lane id=":2609573405_0_0" index="0" allow="rail_urban" speed="27.78" length="5.00" shape="771.27,653.56 766.54,651.94"/>
    </edge>
    <edge id=":303275184_0" function="internal">
        <lane id=":303275184_0_0" index="0" disallow="pedestrian tram rail_urban rail rail_electric rail_fast ship container cable_car subway aircraft wheelchair scooter drone" speed="9.26" length="15.30" shape="829.99,750.51 828.12,754.72 825.45,757.58 821.99,759.10 817.74,759.28"/>
        <lane id=":303275184_0_1" index="1" disallow="pedestrian tram rail_urban rail rail_electric rail_fast ship container cable_car subway aircraft wheelchair scooter drone" speed="8.57" length="15.30" shape="826.93,749.58 825.41,752.68 823.05,754.76 819.84,755.82 815.78,755.86"/>
    </edge>
    <edge id=":303275664_0" function="internal">
        <lane id=":303275664_0_0" index="0" disallow="pedestrian tram rail_urban rail rail_electric rail_fast ship container cable_car subway aircraft wheelchair scooter drone" speed="8.33" length="11.32" shape="637.03,646.99 647.75,650.64"/>
    </edge>
    <edge id=":303275664_1" function="internal">
        <lane id=":303275664_1_0" index="0" disallow="pedestrian tram rail_urban rail rail_electric rail_fast ship container cable_car subway aircraft wheelchair scooter drone" speed="6.85" length="5.13" shape="639.79,654.75 641.00,652.20 642.72,650.67"/>
    </edge>
    <edge id=":303275664_2" function="internal">
        <lane id=":303275664_2_0" index="0" disallow="pedestrian tram rail_urban rail rail_electric rail_fast ship container cable_car subway aircraft wheelchair scooter drone" speed="6.85" length="5.13" shape="642.72,650.67 644.98,650.15 647.75,650.64"/>
    </edge>
    <edge id=":303275666_0" function="internal">
        <lane id=":303275666_0_0" index="0" disallow="pedestrian tram rail_urban rail rail_electric rail_fast ship container cable_car subway aircraft wheelchair scooter drone" speed="8.33" length="5.43" shape="779.69,698.07 784.72,700.10"/>
    </edge>
    <edge id=":303278079_0" function="internal">
        <lane id=":303278079_0_0" index="0" disallow="pedestrian tram rail_urban rail rail_electric rail_fast ship container cable_car subway aircraft wheelchair scooter drone" speed="7.69" length="12.86" shape="666.39,381.18 662.50,379.58 659.96,377.59 658.78,375.21 658.95,372.45"/>
        <lane id=":303278079_0_1" index="1" disallow="pedestrian tram rail_urban rail rail_electric rail_fast ship container cable_car subway aircraft wheelchair scooter drone" speed="6.91" length="10.20" shape="666.39,381.18 663.84,379.99 662.26,378.28 661.65,376.07 662.03,373.33"/>
    </edge>
    <edge id=":303278079_2" function="internal">
        <lane id=":303278079_2_0" index="0" disallow="pedestrian tram rail_urban rail rail_electric rail_fast ship container cable_car subway aircraft wheelchair scooter drone" speed="13.89" length="11.41" shape="652.72,382.53 655.88,371.56"/>