<configuration>
    <input>
        <net-file value="final.net.xml" />
        <route-files value="final.rou.xml" />
        <additional-files value="7.add.xml" />
    </input>


    <output>
        <tripinfo-output value="7.tripinfo.xml" />
        <fcd-output value="7.fcd.xml" />
    </output>


    <time>
        <begin value="0" />
        <end value="200" />
    </time>
</configuration>