<?xml version="1.0" encoding="UTF-8"?>

<!-- generated on 2024-07-12 22:00:36 by Eclipse SUMO netedit Version 1.20.0
<configuration xmlns:xsi="http://www.w3.org/2001/XMLSchema-instance" xsi:noNamespaceSchemaLocation="http://sumo.dlr.de/xsd/neteditConfiguration.xsd">

    <input>
        <sumo-net-file value="C:\Users\j9902\sumo github\final.net.xml"/>
    </input>

    <output>
        <output-file value="C:\Users\j9902\sumo github\final.net.xml"/>
    </output>

    <processing>
        <geometry.min-radius.fix.railways value="false"/>
        <geometry.max-grade.fix value="false"/>
        <offset.disable-normalization value="true"/>
        <lefthand value="0"/>
    </processing>

    <junctions>
        <no-turnarounds value="true"/>
        <junctions.corner-detail value="5"/>
        <junctions.limit-turn-speed value="5.50"/>
        <rectangular-lane-cut value="0"/>
    </junctions>

    <pedestrian>
        <walkingareas value="0"/>
    </pedestrian>

</configuration>
-->

<net version="1.20" junctionCornerDetail="5" limitTurnSpeed="5.50" xmlns:xsi="http://www.w3.org/2001/XMLSchema-instance" xsi:noNamespaceSchemaLocation="http://sumo.dlr.de/xsd/net_file.xsd">

    <location netOffset="0.00,0.00" convBoundary="-200.00,0.00,400.00,100.10" origBoundary="-10000000000.00,-10000000000.00,10000000000.00,10000000000.00" projParameter="!"/>

    <edge id=":1_0" function="internal">
        <lane id=":1_0_0" index="0" speed="13.89" length="8.00" shape="4.00,108.00 -4.00,108.00"/>
        <lane id=":1_0_1" index="1" speed="13.89" length="8.00" shape="4.00,104.80 -4.00,104.80"/>
        <lane id=":1_0_2" index="2" speed="13.89" length="8.00" shape="4.00,101.60 -4.00,101.60"/>
    </edge>
    <edge id=":1_3" function="internal">
        <lane id=":1_3_0" index="0" speed="13.89" length="8.27" shape="-4.00,95.20 -1.54,94.70 0.00,93.60 1.54,92.50 4.00,92.00"/>
        <lane id=":1_3_1" index="1" speed="13.89" length="8.27" shape="-4.00,95.20 4.00,95.20"/>
        <lane id=":1_3_2" index="2" speed="13.89" length="8.27" shape="-4.00,98.40 4.00,98.40"/>
    </edge>
    <edge id=":2_0" function="internal">
        <lane id=":2_0_0" index="0" speed="13.89" length="8.00" shape="4.00,8.00 -4.00,8.00"/>
        <lane id=":2_0_1" index="1" speed="13.89" length="8.00" shape="4.00,4.80 -4.00,4.80"/>
        <lane id=":2_0_2" index="2" speed="13.89" length="8.00" shape="4.00,1.60 -4.00,1.60"/>
    </edge>
    <edge id=":2_3" function="internal">
        <lane id=":2_3_0" index="0" speed="13.89" length="8.54" shape="-4.00,-4.80 -1.54,-5.30 -0.00,-6.40 1.54,-7.50 4.00,-8.00"/>
        <lane id=":2_3_1" index="1" speed="13.89" length="8.54" shape="-4.00,-1.60 -1.54,-2.10 -0.00,-3.20 1.54,-4.30 4.00,-4.80"/>
        <lane id=":2_3_2" index="2" speed="13.89" length="8.54" shape="-4.00,-1.60 4.00,-1.60"/>
    </edge>
    <edge id=":3_0" function="internal">
        <lane id=":3_0_0" index="0" speed="6.51" length="9.03" shape="92.00,13.60 91.65,11.15 90.60,9.40 88.85,8.35 86.40,8.00"/>
    </edge>
    <edge id=":3_1" function="internal">
        <lane id=":3_1_0" index="0" speed="11.36" length="29.67" shape="95.20,13.60 96.35,5.55 99.80,-0.20 105.55,-3.65 113.60,-4.80"/>
        <lane id=":3_1_1" index="1" speed="10.36" length="24.51" shape="98.40,13.60 99.35,6.95 102.20,2.20 106.95,-0.65 113.60,-1.60"/>
    </edge>
    <edge id=":3_3" function="internal">
        <lane id=":3_3_0" index="0" speed="6.51" length="9.03" shape="113.60,8.00 111.15,8.35 109.40,9.40 108.35,11.15 108.00,13.60"/>
        <lane id=":3_3_1" index="1" speed="8.00" length="14.19" shape="113.60,4.80 109.75,5.35 107.00,7.00 105.35,9.75 104.80,13.60"/>
        <lane id=":3_3_2" index="2" speed="8.67" length="16.85" shape="113.60,4.80 108.35,5.35 104.60,7.00 102.35,9.75 101.60,13.60"/>
    </edge>
    <edge id=":3_6" function="internal">
        <lane id=":3_6_0" index="0" speed="13.89" length="27.28" shape="113.60,4.80 105.50,5.30 100.00,6.40 94.50,7.50 86.40,8.00"/>
        <lane id=":3_6_1" index="1" speed="13.89" length="27.28" shape="113.60,4.80 86.40,4.80"/>
        <lane id=":3_6_2" index="2" speed="13.89" length="27.28" shape="113.60,1.60 86.40,1.60"/>
    </edge>
    <edge id=":3_9" function="internal">
        <lane id=":3_9_0" index="0" speed="13.89" length="27.28" shape="86.40,-8.00 113.60,-8.00"/>
        <lane id=":3_9_1" index="1" speed="13.89" length="27.28" shape="86.40,-4.80 113.60,-4.80"/>
        <lane id=":3_9_2" index="2" speed="13.89" length="27.28" shape="86.40,-4.80 94.50,-4.30 100.00,-3.20 105.50,-2.10 113.60,-1.60"/>
    </edge>
    <edge id=":3_12" function="internal">
        <lane id=":3_12_0" index="0" speed="11.84" length="15.46" shape="86.40,-4.80 95.85,-3.65 101.14,-0.95"/>
        <lane id=":3_12_1" index="1" speed="11.36" length="13.36" shape="86.40,-4.80 94.45,-3.65 98.94,-0.96"/>
        <lane id=":3_12_2" index="2" speed="10.36" length="5.01" shape="86.40,-1.60 91.36,-0.89"/>
    </edge>
    <edge id=":3_15" function="internal">
        <lane id=":3_15_0" index="0" speed="11.84" length="16.84" shape="101.14,-0.95 102.60,-0.20 106.65,5.55 108.00,13.60"/>
    </edge>
    <edge id=":3_16" function="internal">
        <lane id=":3_16_0" index="0" speed="11.36" length="16.31" shape="98.94,-0.96 100.20,-0.20 103.65,5.55 104.80,13.60"/>
    </edge>
    <edge id=":3_17" function="internal">
        <lane id=":3_17_0" index="0" speed="10.36" length="19.50" shape="91.36,-0.89 93.05,-0.65 97.80,2.20 100.65,6.95 101.60,13.60"/>
    </edge>
    <edge id=":4_0" function="internal">
        <lane id=":4_0_0" index="0" speed="13.89" length="8.54" shape="204.00,4.80 201.54,5.30 200.00,6.40 198.46,7.50 196.00,8.00"/>
        <lane id=":4_0_1" index="1" speed="13.89" length="8.54" shape="204.00,1.60 201.54,2.10 200.00,3.20 198.46,4.30 196.00,4.80"/>
        <lane id=":4_0_2" index="2" speed="13.89" length="8.54" shape="204.00,1.60 196.00,1.60"/>
    </edge>
    <edge id=":4_3" function="internal">
        <lane id=":4_3_0" index="0" speed="13.89" length="8.00" shape="196.00,-8.00 204.00,-8.00"/>
        <lane id=":4_3_1" index="1" speed="13.89" length="8.00" shape="196.00,-4.80 204.00,-4.80"/>
        <lane id=":4_3_2" index="2" speed="13.89" length="8.00" shape="196.00,-1.60 204.00,-1.60"/>
    </edge>
    <edge id=":5_0" function="internal">
        <lane id=":5_0_0" index="0" speed="13.89" length="8.54" shape="204.00,104.80 201.54,105.30 200.00,106.40 198.46,107.50 196.00,108.00"/>
        <lane id=":5_0_1" index="1" speed="13.89" length="8.54" shape="204.00,101.60 201.54,102.10 200.00,103.20 198.46,104.30 196.00,104.80"/>
        <lane id=":5_0_2" index="2" speed="13.89" length="8.54" shape="204.00,101.60 196.00,101.60"/>
    </edge>
    <edge id=":5_3" function="internal">
        <lane id=":5_3_0" index="0" speed="13.89" length="8.00" shape="196.00,92.00 204.00,92.00"/>
        <lane id=":5_3_1" index="1" speed="13.89" length="8.00" shape="196.00,95.20 204.00,95.20"/>
        <lane id=":5_3_2" index="2" speed="13.89" length="8.00" shape="196.00,98.40 204.00,98.40"/>
    </edge>
    <edge id=":6_0" function="internal">
        <lane id=":6_0_0" index="0" speed="13.89" length="27.28" shape="113.60,108.00 86.40,108.00"/>
        <lane id=":6_0_1" index="1" speed="13.89" length="27.28" shape="113.60,104.80 86.40,104.80"/>
        <lane id=":6_0_2" index="2" speed="13.89" length="27.28" shape="113.60,104.80 105.50,104.30 100.00,103.20 94.50,102.10 86.40,101.60"/>
    </edge>
    <edge id=":6_3" function="internal">
        <lane id=":6_3_0" index="0" speed="11.36" length="13.36" shape="113.60,104.80 105.55,103.65 101.06,100.96"/>
        <lane id=":6_3_1" index="1" speed="10.36" length="5.01" shape="113.60,101.60 108.64,100.89"/>
    </edge>
    <edge id=":6_12" function="internal">
        <lane id=":6_12_0" index="0" speed="11.36" length="16.31" shape="101.06,100.96 99.80,100.20 96.35,94.45 95.20,86.40"/>
    </edge>
    <edge id=":6_13" function="internal">
        <lane id=":6_13_0" index="0" speed="10.36" length="19.50" shape="108.64,100.89 106.95,100.65 102.20,97.80 99.35,93.05 98.40,86.40"/>
    </edge>
    <edge id=":6_5" function="internal">
        <lane id=":6_5_0" index="0" speed="6.51" length="9.03" shape="108.00,86.40 108.35,88.85 109.40,90.60 111.15,91.65 113.60,92.00"/>
    </edge>
    <edge id=":6_6" function="internal">
        <lane id=":6_6_0" index="0" speed="11.36" length="29.67" shape="104.80,86.40 103.65,94.45 100.20,100.20 94.45,103.65 86.40,104.80"/>
        <lane id=":6_6_1" index="1" speed="10.36" length="24.51" shape="101.60,86.40 100.65,93.05 97.80,97.80 93.05,100.65 86.40,101.60"/>
    </edge>
    <edge id=":6_8" function="internal">
        <lane id=":6_8_0" index="0" speed="6.51" length="9.03" shape="86.40,92.00 88.85,91.65 90.60,90.60 91.65,88.85 92.00,86.40"/>
    </edge>
    <edge id=":6_9" function="internal">
        <lane id=":6_9_0" index="0" speed="13.89" length="27.28" shape="86.40,95.20 94.50,94.70 100.00,93.60 105.50,92.50 113.60,92.00"/>
        <lane id=":6_9_1" index="1" speed="13.89" length="27.28" shape="86.40,95.20 113.60,95.20"/>
        <lane id=":6_9_2" index="2" speed="13.89" length="27.28" shape="86.40,98.40 113.60,98.40"/>
    </edge>
    <edge id=":911_0" function="internal">
        <lane id=":911_0_0" index="0" speed="13.89" length="0.31" shape="-99.85,108.00 -100.16,108.00"/>
        <lane id=":911_0_1" index="1" speed="13.89" length="0.31" shape="-99.85,104.80 -100.16,104.80"/>
        <lane id=":911_0_2" index="2" speed="13.89" length="0.31" shape="-99.85,101.60 -100.16,101.60"/>
    </edge>
    <edge id=":911_3" function="internal">
        <lane id=":911_3_0" index="0" speed="13.89" length="0.31" shape="-100.16,95.20 -99.85,95.20"/>
        <lane id=":911_3_1" index="1" speed="13.89" length="0.31" shape="-100.16,98.40 -99.85,98.40"/>
    </edge>
    <edge id=":912_0" function="internal">
        <lane id=":912_0_0" index="0" speed="13.89" length="0.10" shape="-100.00,8.00 -100.00,8.00"/>
        <lane id=":912_0_1" index="1" speed="13.89" length="0.10" shape="-100.00,4.80 -100.00,4.80"/>
        <lane id=":912_0_2" index="2" speed="13.89" length="0.10" shape="-100.00,1.60 -100.00,1.60"/>
    </edge>
    <edge id=":912_3" function="internal">
        <lane id=":912_3_0" index="0" speed="13.89" length="0.10" shape="-100.00,-4.80 -100.00,-4.80"/>
        <lane id=":912_3_1" index="1" speed="13.89" length="0.10" shape="-100.00,-1.60 -100.00,-1.60"/>
    </edge>
    <edge id=":913_0" function="internal">
        <lane id=":913_0_0" index="0" speed="13.89" length="0.10" shape="300.00,4.80 300.00,4.80"/>
        <lane id=":913_0_1" index="1" speed="13.89" length="0.10" shape="300.00,1.60 300.00,1.60"/>
    </edge>
    <edge id=":913_2" function="internal">
        <lane id=":913_2_0" index="0" speed="13.89" length="0.10" shape="300.00,-8.00 300.00,-8.00"/>
        <lane id=":913_2_1" index="1" speed="13.89" length="0.10" shape="300.00,-4.80 300.00,-4.80"/>
        <lane id=":913_2_2" index="2" speed="13.89" length="0.10" shape="300.00,-1.60 300.00,-1.60"/>
    </edge>
    <edge id=":914_0" function="internal">
        <lane id=":914_0_0" index="0" speed="13.89" length="0.10" shape="300.00,104.80 300.00,104.80"/>
        <lane id=":914_0_1" index="1" speed="13.89" length="0.10" shape="300.00,101.60 300.00,101.60"/>
    </edge>
    <edge id=":914_2" function="internal">
        <lane id=":914_2_0" index="0" speed="13.89" length="0.10" shape="300.00,92.00 300.00,92.00"/>
        <lane id=":914_2_1" index="1" speed="13.89" length="0.10" shape="300.00,95.20 300.00,95.20"/>
        <lane id=":914_2_2" index="2" speed="13.89" length="0.10" shape="300.00,98.40 300.00,98.40"/>
    </edge>

    <edge id="D1" from="911" to="91" priority="-1">
        <lane id="D1_0" index="0" speed="13.89" length="99.84" shape="-100.16,108.00 -200.00,108.00"/>
        <lane id="D1_1" index="1" speed="13.89" length="99.84" shape="-100.16,104.80 -200.00,104.80"/>
        <lane id="D1_2" index="2" speed="13.89" length="99.84" shape="-100.16,101.60 -200.00,101.60"/>
    </edge>
    <edge id="D2" from="91" to="911" priority="-1" shape="-199.90,100.10 -100.00,100.00">
        <lane id="D2_0" index="0" speed="13.89" length="99.85" shape="-200.00,95.30 -100.16,95.20"/>
        <lane id="D2_1" index="1" speed="13.89" length="99.85" shape="-200.00,98.50 -100.16,98.40"/>
    </edge>
    <edge id="D3" from="912" to="92" priority="-1">
        <lane id="D3_0" index="0" speed="13.89" length="100.00" shape="-100.00,8.00 -200.00,8.00"/>
        <lane id="D3_1" index="1" speed="13.89" length="100.00" shape="-100.00,4.80 -200.00,4.80"/>
        <lane id="D3_2" index="2" speed="13.89" length="100.00" shape="-100.00,1.60 -200.00,1.60"/>
    </edge>
    <edge id="D4" from="92" to="912" priority="-1">
        <lane id="D4_0" index="0" speed="13.89" length="100.00" shape="-200.00,-4.80 -100.00,-4.80"/>
        <lane id="D4_1" index="1" speed="13.89" length="100.00" shape="-200.00,-1.60 -100.00,-1.60"/>
    </edge>
    <edge id="D5" from="913" to="93" priority="-1">
        <lane id="D5_0" index="0" speed="13.89" length="100.00" shape="300.00,-8.00 400.00,-8.00"/>
        <lane id="D5_1" index="1" speed="13.89" length="100.00" shape="300.00,-4.80 400.00,-4.80"/>
        <lane id="D5_2" index="2" speed="13.89" length="100.00" shape="300.00,-1.60 400.00,-1.60"/>
    </edge>
    <edge id="D6" from="93" to="913" priority="-1">
        <lane id="D6_0" index="0" speed="13.89" length="100.00" shape="400.00,4.80 300.00,4.80"/>
        <lane id="D6_1" index="1" speed="13.89" length="100.00" shape="400.00,1.60 300.00,1.60"/>
    </edge>
    <edge id="D7" from="914" to="94" priority="-1">
        <lane id="D7_0" index="0" speed="13.89" length="100.00" shape="300.00,92.00 400.00,92.00"/>
        <lane id="D7_1" index="1" speed="13.89" length="100.00" shape="300.00,95.20 400.00,95.20"/>
        <lane id="D7_2" index="2" speed="13.89" length="100.00" shape="300.00,98.40 400.00,98.40"/>
    </edge>
    <edge id="D8" from="94" to="914" priority="-1">
        <lane id="D8_0" index="0" speed="13.89" length="100.00" shape="400.00,104.80 300.00,104.80"/>
        <lane id="D8_1" index="1" speed="13.89" length="100.00" shape="400.00,101.60 300.00,101.60"/>
    </edge>
    <edge id="L1" from="1" to="911" priority="-1">
        <lane id="L1_0" index="0" speed="13.89" length="95.85" shape="-4.00,108.00 -99.85,108.00"/>
        <lane id="L1_1" index="1" speed="13.89" length="95.85" shape="-4.00,104.80 -99.85,104.80"/>
        <lane id="L1_2" index="2" speed="13.89" length="95.85" shape="-4.00,101.60 -99.85,101.60"/>
    </edge>
    <edge id="L10" from="6" to="5" priority="-1">
        <lane id="L10_0" index="0" speed="13.89" length="82.40" shape="113.60,92.00 196.00,92.00"/>
        <lane id="L10_1" index="1" speed="13.89" length="82.40" shape="113.60,95.20 196.00,95.20"/>
        <lane id="L10_2" index="2" speed="13.89" length="82.40" shape="113.60,98.40 196.00,98.40"/>
    </edge>
    <edge id="L11" from="6" to="1" priority="-1">
        <lane id="L11_0" index="0" speed="13.89" length="82.40" shape="86.40,108.00 4.00,108.00"/>
        <lane id="L11_1" index="1" speed="13.89" length="82.40" shape="86.40,104.80 4.00,104.80"/>
        <lane id="L11_2" index="2" speed="13.89" length="82.40" shape="86.40,101.60 4.00,101.60"/>
    </edge>
    <edge id="L12" from="1" to="6" priority="-1">
        <lane id="L12_0" index="0" speed="13.89" length="82.40" shape="4.00,92.00 86.40,92.00"/>
        <lane id="L12_1" index="1" speed="13.89" length="82.40" shape="4.00,95.20 86.40,95.20"/>
        <lane id="L12_2" index="2" speed="13.89" length="82.40" shape="4.00,98.40 86.40,98.40"/>
    </edge>
    <edge id="L13" from="3" to="2" priority="-1">
        <lane id="L13_0" index="0" speed="13.89" length="82.40" shape="86.40,8.00 4.00,8.00"/>
        <lane id="L13_1" index="1" speed="13.89" length="82.40" shape="86.40,4.80 4.00,4.80"/>
        <lane id="L13_2" index="2" speed="13.89" length="82.40" shape="86.40,1.60 4.00,1.60"/>
    </edge>
    <edge id="L14" from="2" to="3" priority="-1">
        <lane id="L14_0" index="0" speed="13.89" length="82.40" shape="4.00,-8.00 86.40,-8.00"/>
        <lane id="L14_1" index="1" speed="13.89" length="82.40" shape="4.00,-4.80 86.40,-4.80"/>
        <lane id="L14_2" index="2" speed="13.89" length="82.40" shape="4.00,-1.60 86.40,-1.60"/>
    </edge>
    <edge id="L15" from="6" to="3" priority="-1">
        <lane id="L15_0" index="0" speed="13.89" length="72.80" shape="92.00,86.40 92.00,13.60"/>
        <lane id="L15_1" index="1" speed="13.89" length="72.80" shape="95.20,86.40 95.20,13.60"/>
        <lane id="L15_2" index="2" speed="13.89" length="72.80" shape="98.40,86.40 98.40,13.60"/>
    </edge>
    <edge id="L16" from="3" to="6" priority="-1">
        <lane id="L16_0" index="0" speed="13.89" length="72.80" shape="108.00,13.60 108.00,86.40"/>
        <lane id="L16_1" index="1" speed="13.89" length="72.80" shape="104.80,13.60 104.80,86.40"/>
        <lane id="L16_2" index="2" speed="13.89" length="72.80" shape="101.60,13.60 101.60,86.40"/>
    </edge>
    <edge id="L17" from="4" to="3" priority="-1">
        <lane id="L17_0" index="0" speed="13.89" length="82.40" shape="196.00,8.00 113.60,8.00"/>
        <lane id="L17_1" index="1" speed="13.89" length="82.40" shape="196.00,4.80 113.60,4.80"/>
        <lane id="L17_2" index="2" speed="13.89" length="82.40" shape="196.00,1.60 113.60,1.60"/>
    </edge>
    <edge id="L18" from="3" to="4" priority="-1">
        <lane id="L18_0" index="0" speed="13.89" length="82.40" shape="113.60,-8.00 196.00,-8.00"/>
        <lane id="L18_1" index="1" speed="13.89" length="82.40" shape="113.60,-4.80 196.00,-4.80"/>
        <lane id="L18_2" index="2" speed="13.89" length="82.40" shape="113.60,-1.60 196.00,-1.60"/>
    </edge>
    <edge id="L2" from="911" to="1" priority="-1">
        <lane id="L2_0" index="0" speed="13.89" length="95.85" shape="-99.85,95.20 -4.00,95.20"/>
        <lane id="L2_1" index="1" speed="13.89" length="95.85" shape="-99.85,98.40 -4.00,98.40"/>
    </edge>
    <edge id="L3" from="2" to="912" priority="-1">
        <lane id="L3_0" index="0" speed="13.89" length="96.00" shape="-4.00,8.00 -100.00,8.00"/>
        <lane id="L3_1" index="1" speed="13.89" length="96.00" shape="-4.00,4.80 -100.00,4.80"/>
        <lane id="L3_2" index="2" speed="13.89" length="96.00" shape="-4.00,1.60 -100.00,1.60"/>
    </edge>
    <edge id="L4" from="912" to="2" priority="-1">
        <lane id="L4_0" index="0" speed="13.89" length="96.00" shape="-100.00,-4.80 -4.00,-4.80"/>
        <lane id="L4_1" index="1" speed="13.89" length="96.00" shape="-100.00,-1.60 -4.00,-1.60"/>
    </edge>
    <edge id="L5" from="4" to="913" priority="-1">
        <lane id="L5_0" index="0" speed="13.89" length="96.00" shape="204.00,-8.00 300.00,-8.00"/>
        <lane id="L5_1" index="1" speed="13.89" length="96.00" shape="204.00,-4.80 300.00,-4.80"/>
        <lane id="L5_2" index="2" speed="13.89" length="96.00" shape="204.00,-1.60 300.00,-1.60"/>
    </edge>
    <edge id="L6" from="913" to="4" priority="-1">
        <lane id="L6_0" index="0" speed="13.89" length="96.00" shape="300.00,4.80 204.00,4.80"/>
        <lane id="L6_1" index="1" speed="13.89" length="96.00" shape="300.00,1.60 204.00,1.60"/>
    </edge>
    <edge id="L7" from="5" to="914" priority="-1">
        <lane id="L7_0" index="0" speed="13.89" length="96.00" shape="204.00,92.00 300.00,92.00"/>
        <lane id="L7_1" index="1" speed="13.89" length="96.00" shape="204.00,95.20 300.00,95.20"/>
        <lane id="L7_2" index="2" speed="13.89" length="96.00" shape="204.00,98.40 300.00,98.40"/>
    </edge>
    <edge id="L8" from="914" to="5" priority="-1">
        <lane id="L8_0" index="0" speed="13.89" length="96.00" shape="300.00,104.80 204.00,104.80"/>
        <lane id="L8_1" index="1" speed="13.89" length="96.00" shape="300.00,101.60 204.00,101.60"/>
    </edge>
    <edge id="L9" from="5" to="6" priority="-1">
        <lane id="L9_0" index="0" speed="13.89" length="82.40" shape="196.00,108.00 113.60,108.00"/>
        <lane id="L9_1" index="1" speed="13.89" length="82.40" shape="196.00,104.80 113.60,104.80"/>
        <lane id="L9_2" index="2" speed="13.89" length="82.40" shape="196.00,101.60 113.60,101.60"/>
    </edge>

    <junction id="1" type="priority" x="0.00" y="100.00" incLanes="L11_0 L11_1 L11_2 L2_0 L2_1" intLanes=":1_0_0 :1_0_1 :1_0_2 :1_3_0 :1_3_1 :1_3_2" shape="4.00,109.60 4.00,90.40 0.97,91.23 -0.97,92.77 -2.21,93.36 -4.00,93.60 -4.00,109.60">
        <request index="0" response="000000" foes="000000" cont="0"/>
        <request index="1" response="000000" foes="000000" cont="0"/>
        <request index="2" response="000000" foes="000000" cont="0"/>
        <request index="3" response="000000" foes="000000" cont="0"/>
        <request index="4" response="000000" foes="000000" cont="0"/>
        <request index="5" response="000000" foes="000000" cont="0"/>
    </junction>
    <junction id="2" type="priority" x="0.00" y="0.00" incLanes="L13_0 L13_1 L13_2 L4_0 L4_1" intLanes=":2_0_0 :2_0_1 :2_0_2 :2_3_0 :2_3_1 :2_3_2" shape="4.00,9.60 4.00,-9.60 0.97,-8.77 -0.97,-7.23 -2.21,-6.64 -4.00,-6.40 -4.00,9.60">
        <request index="0" response="000000" foes="000000" cont="0"/>
        <request index="1" response="000000" foes="000000" cont="0"/>
        <request index="2" response="000000" foes="000000" cont="0"/>
        <request index="3" response="000000" foes="000000" cont="0"/>
        <request index="4" response="000000" foes="000000" cont="0"/>
        <request index="5" response="000000" foes="000000" cont="0"/>
    </junction>
    <junction id="3" type="priority" x="100.00" y="0.00" incLanes="L15_0 L15_1 L15_2 L17_0 L17_1 L17_2 L14_0 L14_1 L14_2" intLanes=":3_0_0 :3_1_0 :3_1_1 :3_3_0 :3_3_1 :3_3_2 :3_6_0 :3_6_1 :3_6_2 :3_9_0 :3_9_1 :3_9_2 :3_15_0 :3_16_0 :3_17_0" shape="90.40,13.60 109.60,13.60 110.04,11.38 110.60,10.60 111.38,10.04 112.38,9.71 113.60,9.60 113.60,-9.60 86.40,-9.60 86.40,9.60 88.62,10.04 89.40,10.60 89.96,11.38 90.29,12.38">
        <request index="0"  response="000000111000000" foes="000000111000000" cont="0"/>
        <request index="1"  response="111111111000000" foes="111111111000000" cont="0"/>
        <request index="2"  response="111111111000000" foes="111111111000000" cont="0"/>
        <request index="3"  response="000000000000000" foes="111000000000000" cont="0"/>
        <request index="4"  response="000000000000000" foes="111000000000000" cont="0"/>
        <request index="5"  response="000000000000000" foes="111000000000000" cont="0"/>
        <request index="6"  response="000000000000000" foes="111000000000111" cont="0"/>
        <request index="7"  response="000000000000000" foes="111000000000111" cont="0"/>
        <request index="8"  response="000000000000000" foes="111000000000111" cont="0"/>
        <request index="9"  response="000000000000000" foes="000000000000110" cont="0"/>
        <request index="10" response="000000000000000" foes="000000000000110" cont="0"/>
        <request index="11" response="000000000000000" foes="000000000000110" cont="0"/>
        <request index="12" response="000000111111000" foes="000000111111110" cont="1"/>
        <request index="13" response="000000111111000" foes="000000111111110" cont="1"/>
        <request index="14" response="000000111111000" foes="000000111111110" cont="1"/>
    </junction>
    <junction id="4" type="priority" x="200.00" y="0.00" incLanes="L6_0 L6_1 L18_0 L18_1 L18_2" intLanes=":4_0_0 :4_0_1 :4_0_2 :4_3_0 :4_3_1 :4_3_2" shape="204.00,6.40 204.00,-9.60 196.00,-9.60 196.00,9.60 199.03,8.77 200.97,7.23 202.21,6.64">
        <request index="0" response="000000" foes="000000" cont="0"/>
        <request index="1" response="000000" foes="000000" cont="0"/>
        <request index="2" response="000000" foes="000000" cont="0"/>
        <request index="3" response="000000" foes="000000" cont="0"/>
        <request index="4" response="000000" foes="000000" cont="0"/>
        <request index="5" response="000000" foes="000000" cont="0"/>
    </junction>
    <junction id="5" type="priority" x="200.00" y="100.00" incLanes="L8_0 L8_1 L10_0 L10_1 L10_2" intLanes=":5_0_0 :5_0_1 :5_0_2 :5_3_0 :5_3_1 :5_3_2" shape="204.00,106.40 204.00,90.40 196.00,90.40 196.00,109.60 199.03,108.77 200.97,107.23 202.21,106.64">
        <request index="0" response="000000" foes="000000" cont="0"/>
        <request index="1" response="000000" foes="000000" cont="0"/>
        <request index="2" response="000000" foes="000000" cont="0"/>
        <request index="3" response="000000" foes="000000" cont="0"/>
        <request index="4" response="000000" foes="000000" cont="0"/>
        <request index="5" response="000000" foes="000000" cont="0"/>
    </junction>
    <junction id="6" type="priority" x="100.00" y="100.00" incLanes="L9_0 L9_1 L9_2 L16_0 L16_1 L16_2 L12_0 L12_1 L12_2" intLanes=":6_0_0 :6_0_1 :6_0_2 :6_12_0 :6_13_0 :6_5_0 :6_6_0 :6_6_1 :6_8_0 :6_9_0 :6_9_1 :6_9_2" shape="113.60,109.60 113.60,90.40 111.38,89.96 110.60,89.40 110.04,88.62 109.71,87.62 109.60,86.40 90.40,86.40 89.96,88.62 89.40,89.40 88.62,89.96 87.62,90.29 86.40,90.40 86.40,109.60">
        <request index="0"  response="000000000000" foes="000011000000" cont="0"/>
        <request index="1"  response="000000000000" foes="000011000000" cont="0"/>
        <request index="2"  response="000000000000" foes="000011000000" cont="0"/>
        <request index="3"  response="111000000000" foes="111011000000" cont="1"/>
        <request index="4"  response="111000000000" foes="111011000000" cont="1"/>
        <request index="5"  response="111000000000" foes="111000000000" cont="0"/>
        <request index="6"  response="111000011111" foes="111000011111" cont="0"/>
        <request index="7"  response="111000011111" foes="111000011111" cont="0"/>
        <request index="8"  response="000000000000" foes="000000000000" cont="0"/>
        <request index="9"  response="000000000000" foes="000011111000" cont="0"/>
        <request index="10" response="000000000000" foes="000011111000" cont="0"/>
        <request index="11" response="000000000000" foes="000011111000" cont="0"/>
    </junction>
    <junction id="91" type="dead_end" x="-200.00" y="100.00" incLanes="D1_0 D1_1 D1_2" intLanes="" shape="-200.00,100.10 -200.01,93.70 -200.00,109.60"/>
    <junction id="911" type="priority" x="-100.00" y="100.00" incLanes="L1_0 L1_1 L1_2 D2_0 D2_1" intLanes=":911_0_0 :911_0_1 :911_0_2 :911_3_0 :911_3_1" shape="-99.85,109.60 -99.85,93.60 -100.16,93.60 -100.16,109.60">
        <request index="0" response="00000" foes="00000" cont="0"/>
        <request index="1" response="00000" foes="00000" cont="0"/>
        <request index="2" response="00000" foes="00000" cont="0"/>
        <request index="3" response="00000" foes="00000" cont="0"/>
        <request index="4" response="00000" foes="00000" cont="0"/>
    </junction>
    <junction id="912" type="priority" x="-100.00" y="0.00" incLanes="L3_0 L3_1 L3_2 D4_0 D4_1" intLanes=":912_0_0 :912_0_1 :912_0_2 :912_3_0 :912_3_1" shape="-100.00,9.60 -100.00,-6.40 -100.00,9.60">
        <request index="0" response="00000" foes="00000" cont="0"/>
        <request index="1" response="00000" foes="00000" cont="0"/>
        <request index="2" response="00000" foes="00000" cont="0"/>
        <request index="3" response="00000" foes="00000" cont="0"/>
        <request index="4" response="00000" foes="00000" cont="0"/>
    </junction>
    <junction id="913" type="priority" x="300.00" y="0.00" incLanes="D6_0 D6_1 L5_0 L5_1 L5_2" intLanes=":913_0_0 :913_0_1 :913_2_0 :913_2_1 :913_2_2" shape="300.00,6.40 300.00,-9.60 300.00,6.40">
        <request index="0" response="00000" foes="00000" cont="0"/>
        <request index="1" response="00000" foes="00000" cont="0"/>
        <request index="2" response="00000" foes="00000" cont="0"/>
        <request index="3" response="00000" foes="00000" cont="0"/>
        <request index="4" response="00000" foes="00000" cont="0"/>
    </junction>
    <junction id="914" type="priority" x="300.00" y="100.00" incLanes="D8_0 D8_1 L7_0 L7_1 L7_2" intLanes=":914_0_0 :914_0_1 :914_2_0 :914_2_1 :914_2_2" shape="300.00,106.40 300.00,90.40 300.00,106.40">
        <request index="0" response="00000" foes="00000" cont="0"/>
        <request index="1" response="00000" foes="00000" cont="0"/>
        <request index="2" response="00000" foes="00000" cont="0"/>
        <request index="3" response="00000" foes="00000" cont="0"/>
        <request index="4" response="00000" foes="00000" cont="0"/>
    </junction>
    <junction id="92" type="dead_end" x="-200.00" y="0.00" incLanes="D3_0 D3_1 D3_2" intLanes="" shape="-200.00,0.00 -200.00,9.60 -200.00,0.00"/>
    <junction id="93" type="dead_end" x="400.00" y="0.00" incLanes="D5_0 D5_1 D5_2" intLanes="" shape="400.00,0.00 400.00,-9.60 400.00,0.00"/>
    <junction id="94" type="dead_end" x="400.00" y="100.00" incLanes="D7_0 D7_1 D7_2" intLanes="" shape="400.00,100.00 400.00,90.40 400.00,100.00"/>

    <junction id=":3_15_0" type="internal" x="101.14" y="-0.95" incLanes=":3_12_0 L17_0 L17_1 L17_2" intLanes=":3_1_0 :3_1_1 :3_3_0 :3_3_1 :3_3_2 :3_6_0 :3_6_1 :3_6_2"/>
    <junction id=":3_16_0" type="internal" x="98.94" y="-0.96" incLanes=":3_12_1 L17_0 L17_1 L17_2" intLanes=":3_1_0 :3_1_1 :3_3_0 :3_3_1 :3_3_2 :3_6_0 :3_6_1 :3_6_2"/>
    <junction id=":3_17_0" type="internal" x="91.36" y="-0.89" incLanes=":3_12_2 L17_0 L17_1 L17_2" intLanes=":3_1_0 :3_1_1 :3_3_0 :3_3_1 :3_3_2 :3_6_0 :3_6_1 :3_6_2"/>